@<TRIPOS>MOLECULE
Calcium FCC Primitive cell
         1         0         1         0         0
SMALL
NO_CHARGES

@<TRIPOS>ATOM
        1 Ca         0.000000000         0.000000000         0.000000000 Ca    1 UNK    0.0000
@<TRIPOS>BOND
@<TRIPOS>SUBSTRUCTURE
 1 UNK 1
@<TRIPOS>COMMENT
 WM_BOX
        p         0.000000000000000         2.790000000000000         0.000000000000000         2.790000000000000
        p         0.000000000000000         2.790000000000000         2.790000000000000         0.000000000000000
        p         0.000000000000000         0.000000000000000         2.790000000000000         2.790000000000000
