@<TRIPOS>MOLECULE
Methane molecule
         5         4         1         0         0
SMALL
NO_CHARGES

@<TRIPOS>ATOM
        1 C          5.645866974         5.541722883         5.896678238 C.3   1 UNK    0.0000
        2 H          6.745866974         5.541722883         5.896678238 H     1 UNK    0.0000
        3 H          5.287742004         6.581793316         5.896678238 H     1 UNK    0.0000
        4 H          5.287742004         5.021687667         4.995950821 H     1 UNK    0.0000
        5 H          5.287742004         5.021687667         6.797405655 H     1 UNK    0.0000
@<TRIPOS>BOND
        1        1        2 1     
        2        1        3 1     
        3        1        4 1     
        4        1        5 1     
@<TRIPOS>SUBSTRUCTURE
 1 UNK 1
@<TRIPOS>COMMENT
 WM_BOX
        p         0.000000000000000        11.458124969902869         0.000000000000000         0.000000000000000
        p         0.000000000000000         0.000000000000000        11.560105649738873         0.000000000000000
        p         0.000000000000000         0.000000000000000         0.000000000000000        11.801454833681992
