@<TRIPOS>MOLECULE
Generated by trjconv : generated by Winmostar V11.6.0 t=  50.00000
      1505      1004       501         0         0
SMALL
USER_CHARGES


@<TRIPOS>ATOM
        1 C1            4.210000000         7.980000000        18.970000000 C.3       1 MOL01   -0.106800000
        2 H2            4.220000000         7.340000000        19.870000000 H         1 MOL01    0.026700000
        3 H3            5.210000000         8.110000000        18.540000000 H         1 MOL01    0.026700000
        4 H4            3.650000000         7.390000000        18.230000000 H         1 MOL01    0.026700000
        5 H5            3.710000000         8.880000000        19.340000000 H         1 MOL01    0.026700000
        6 OW           13.550000000        10.570000000         6.930000000 O.3       2 SOL     -0.847600000
        7 HW1          13.750000000        10.500000000         5.950000000 H         2 SOL      0.423800000
        8 HW2          14.060000000         9.870000000         7.420000000 H         2 SOL      0.423800000
        9 OW           14.360000000         4.840000000        22.790000000 O.3       3 SOL     -0.847600000
       10 HW1          13.700000000         5.230000000        22.140000000 H         3 SOL      0.423800000
       11 HW2          14.380000000         3.850000000        22.690000000 H         3 SOL      0.423800000
       12 OW           16.640000000        25.030000000        -3.930000000 O.3       4 SOL     -0.847600000
       13 HW1          17.160000000        24.190000000        -3.810000000 H         4 SOL      0.423800000
       14 HW2          15.850000000        25.030000000        -3.320000000 H         4 SOL      0.423800000
       15 OW           13.210000000        -2.210000000         1.760000000 O.3       5 SOL     -0.847600000
       16 HW1          12.590000000        -2.490000000         2.500000000 H         5 SOL      0.423800000
       17 HW2          12.940000000        -1.310000000         1.430000000 H         5 SOL      0.423800000
       18 OW           16.520000000        18.990000000        31.430000000 O.3       6 SOL     -0.847600000
       19 HW1          15.800000000        18.370000000        31.730000000 H         6 SOL      0.423800000
       20 HW2          16.600000000        18.940000000        30.430000000 H         6 SOL      0.423800000
       21 OW           31.070000000        26.050000000        17.960000000 O.3       7 SOL     -0.847600000
       22 HW1          30.680000000        26.260000000        18.850000000 H         7 SOL      0.423800000
       23 HW2          30.340000000        25.840000000        17.310000000 H         7 SOL      0.423800000
       24 OW           12.600000000        21.410000000        10.710000000 O.3       8 SOL     -0.847600000
       25 HW1          12.980000000        21.340000000        11.630000000 H         8 SOL      0.423800000
       26 HW2          11.600000000        21.500000000        10.760000000 H         8 SOL      0.423800000
       27 OW           21.840000000        26.050000000         8.880000000 O.3       9 SOL     -0.847600000
       28 HW1          22.150000000        26.230000000         7.950000000 H         9 SOL      0.423800000
       29 HW2          22.480000000        26.470000000         9.530000000 H         9 SOL      0.423800000
       30 OW           20.870000000         4.060000000        13.840000000 O.3      10 SOL     -0.847600000
       31 HW1          21.170000000         3.610000000        13.000000000 H        10 SOL      0.423800000
       32 HW2          19.870000000         4.130000000        13.840000000 H        10 SOL      0.423800000
       33 OW           14.570000000        30.630000000        17.740000000 O.3      11 SOL     -0.847600000
       34 HW1          13.890000000        30.080000000        17.260000000 H        11 SOL      0.423800000
       35 HW2          14.110000000        31.330000000        18.280000000 H        11 SOL      0.423800000
       36 OW           15.840000000         9.130000000         1.560000000 O.3      12 SOL     -0.847600000
       37 HW1          15.280000000         8.900000000         0.760000000 H        12 SOL      0.423800000
       38 HW2          15.640000000         8.480000000         2.300000000 H        12 SOL      0.423800000
       39 OW           17.170000000        18.740000000        19.290000000 O.3      13 SOL     -0.847600000
       40 HW1          16.800000000        19.660000000        19.210000000 H        13 SOL      0.423800000
       41 HW2          18.120000000        18.730000000        18.970000000 H        13 SOL      0.423800000
       42 OW            9.250000000         1.730000000        21.100000000 O.3      14 SOL     -0.847600000
       43 HW1           9.180000000         1.840000000        20.110000000 H        14 SOL      0.423800000
       44 HW2           8.420000000         2.080000000        21.530000000 H        14 SOL      0.423800000
       45 OW           10.150000000        22.560000000        11.020000000 O.3      15 SOL     -0.847600000
       46 HW1           9.770000000        23.480000000        10.890000000 H        15 SOL      0.423800000
       47 HW2           9.950000000        22.000000000        10.210000000 H        15 SOL      0.423800000
       48 OW           18.280000000         9.780000000         0.430000000 O.3      16 SOL     -0.847600000
       49 HW1          18.990000000         9.140000000         0.700000000 H        16 SOL      0.423800000
       50 HW2          17.380000000         9.420000000         0.680000000 H        16 SOL      0.423800000
       51 OW           -5.230000000         2.840000000        10.690000000 O.3      17 SOL     -0.847600000
       52 HW1          -4.800000000         2.880000000         9.790000000 H        17 SOL      0.423800000
       53 HW2          -4.860000000         2.060000000        11.200000000 H        17 SOL      0.423800000
       54 OW           23.340000000         3.840000000        19.520000000 O.3      18 SOL     -0.847600000
       55 HW1          23.060000000         4.740000000        19.860000000 H        18 SOL      0.423800000
       56 HW2          23.970000000         3.420000000        20.170000000 H        18 SOL      0.423800000
       57 OW           18.430000000         5.290000000         1.310000000 O.3      19 SOL     -0.847600000
       58 HW1          17.490000000         5.560000000         1.070000000 H        19 SOL      0.423800000
       59 HW2          18.930000000         6.090000000         1.650000000 H        19 SOL      0.423800000
       60 OW            1.260000000        36.400000000        -0.560000000 O.3      20 SOL     -0.847600000
       61 HW1           1.930000000        36.830000000        -1.170000000 H        20 SOL      0.423800000
       62 HW2           1.270000000        36.880000000         0.330000000 H        20 SOL      0.423800000
       63 OW           22.170000000         8.320000000        16.530000000 O.3      21 SOL     -0.847600000
       64 HW1          21.830000000         7.380000000        16.490000000 H        21 SOL      0.423800000
       65 HW2          23.160000000         8.320000000        16.370000000 H        21 SOL      0.423800000
       66 OW            3.760000000        13.190000000        23.970000000 O.3      22 SOL     -0.847600000
       67 HW1           3.960000000        12.570000000        23.220000000 H        22 SOL      0.423800000
       68 HW2           4.520000000        13.830000000        24.100000000 H        22 SOL      0.423800000
       69 OW           -5.830000000        13.780000000        19.390000000 O.3      23 SOL     -0.847600000
       70 HW1          -6.180000000        14.190000000        18.550000000 H        23 SOL      0.423800000
       71 HW2          -6.590000000        13.630000000        20.030000000 H        23 SOL      0.423800000
       72 OW           15.620000000        -1.860000000         8.780000000 O.3      24 SOL     -0.847600000
       73 HW1          15.850000000        -1.550000000         9.700000000 H        24 SOL      0.423800000
       74 HW2          16.360000000        -1.640000000         8.150000000 H        24 SOL      0.423800000
       75 OW            8.230000000        15.100000000        22.240000000 O.3      25 SOL     -0.847600000
       76 HW1           8.520000000        15.890000000        21.700000000 H        25 SOL      0.423800000
       77 HW2           9.040000000        14.640000000        22.610000000 H        25 SOL      0.423800000
       78 OW           12.430000000         5.270000000        20.550000000 O.3      26 SOL     -0.847600000
       79 HW1          12.860000000         4.830000000        19.760000000 H        26 SOL      0.423800000
       80 HW2          11.930000000         4.590000000        21.080000000 H        26 SOL      0.423800000
       81 OW            4.090000000        17.780000000         7.740000000 O.3      27 SOL     -0.847600000
       82 HW1           4.160000000        18.090000000         8.690000000 H        27 SOL      0.423800000
       83 HW2           4.960000000        17.370000000         7.460000000 H        27 SOL      0.423800000
       84 OW            4.870000000        26.920000000        -4.610000000 O.3      28 SOL     -0.847600000
       85 HW1           4.590000000        27.840000000        -4.900000000 H        28 SOL      0.423800000
       86 HW2           4.060000000        26.330000000        -4.580000000 H        28 SOL      0.423800000
       87 OW            6.270000000        31.990000000        15.370000000 O.3      29 SOL     -0.847600000
       88 HW1           5.710000000        32.680000000        14.920000000 H        29 SOL      0.423800000
       89 HW2           7.180000000        32.370000000        15.560000000 H        29 SOL      0.423800000
       90 OW            0.320000000         2.480000000        27.950000000 O.3      30 SOL     -0.847600000
       91 HW1          -0.510000000         2.210000000        27.460000000 H        30 SOL      0.423800000
       92 HW2           1.080000000         2.540000000        27.300000000 H        30 SOL      0.423800000
       93 OW           28.240000000        23.150000000        -6.670000000 O.3      31 SOL     -0.847600000
       94 HW1          27.920000000        22.430000000        -7.290000000 H        31 SOL      0.423800000
       95 HW2          28.650000000        23.890000000        -7.200000000 H        31 SOL      0.423800000
       96 OW            4.980000000        15.770000000         1.040000000 O.3      32 SOL     -0.847600000
       97 HW1           4.610000000        15.610000000         1.960000000 H        32 SOL      0.423800000
       98 HW2           4.610000000        16.620000000         0.670000000 H        32 SOL      0.423800000
       99 OW           24.460000000        -3.010000000        15.040000000 O.3      33 SOL     -0.847600000
      100 HW1          24.440000000        -3.150000000        16.030000000 H        33 SOL      0.423800000
      101 HW2          24.850000000        -3.820000000        14.600000000 H        33 SOL      0.423800000
      102 OW            4.950000000         2.980000000        11.730000000 O.3      34 SOL     -0.847600000
      103 HW1           4.480000000         2.090000000        11.720000000 H        34 SOL      0.423800000
      104 HW2           4.370000000         3.650000000        12.200000000 H        34 SOL      0.423800000
      105 OW           12.110000000        13.760000000        18.740000000 O.3      35 SOL     -0.847600000
      106 HW1          12.570000000        13.770000000        19.630000000 H        35 SOL      0.423800000
      107 HW2          12.790000000        13.750000000        18.010000000 H        35 SOL      0.423800000
      108 OW           14.950000000         8.180000000        10.690000000 O.3      36 SOL     -0.847600000
      109 HW1          15.920000000         8.400000000        10.540000000 H        36 SOL      0.423800000
      110 HW2          14.880000000         7.390000000        11.300000000 H        36 SOL      0.423800000
      111 OW           18.110000000         1.550000000         5.070000000 O.3      37 SOL     -0.847600000
      112 HW1          17.860000000         1.990000000         4.200000000 H        37 SOL      0.423800000
      113 HW2          18.990000000         1.080000000         4.960000000 H        37 SOL      0.423800000
      114 OW           10.890000000        20.680000000        -0.890000000 O.3      38 SOL     -0.847600000
      115 HW1          11.370000000        20.240000000        -1.640000000 H        38 SOL      0.423800000
      116 HW2           9.930000000        20.410000000        -0.890000000 H        38 SOL      0.423800000
      117 OW            8.560000000         8.470000000        15.640000000 O.3      39 SOL     -0.847600000
      118 HW1           9.430000000         7.980000000        15.630000000 H        39 SOL      0.423800000
      119 HW2           8.710000000         9.410000000        15.330000000 H        39 SOL      0.423800000
      120 OW            9.390000000        10.440000000        11.880000000 O.3      40 SOL     -0.847600000
      121 HW1           9.420000000        11.190000000        11.220000000 H        40 SOL      0.423800000
      122 HW2           9.970000000        10.670000000        12.670000000 H        40 SOL      0.423800000
      123 OW           23.020000000         9.530000000        21.330000000 O.3      41 SOL     -0.847600000
      124 HW1          22.180000000         9.220000000        21.780000000 H        41 SOL      0.423800000
      125 HW2          23.320000000        10.380000000        21.760000000 H        41 SOL      0.423800000
      126 OW            2.090000000         4.950000000        -1.000000000 O.3      42 SOL     -0.847600000
      127 HW1           2.730000000         5.230000000        -0.280000000 H        42 SOL      0.423800000
      128 HW2           2.520000000         5.060000000        -1.890000000 H        42 SOL      0.423800000
      129 OW           11.130000000        12.620000000         4.490000000 O.3      43 SOL     -0.847600000
      130 HW1          11.250000000        13.020000000         5.400000000 H        43 SOL      0.423800000
      131 HW2          12.030000000        12.550000000         4.040000000 H        43 SOL      0.423800000
      132 OW            7.850000000        31.720000000        17.870000000 O.3      44 SOL     -0.847600000
      133 HW1           8.060000000        32.340000000        17.120000000 H        44 SOL      0.423800000
      134 HW2           7.080000000        31.140000000        17.600000000 H        44 SOL      0.423800000
      135 OW            0.300000000        32.400000000         0.810000000 O.3      45 SOL     -0.847600000
      136 HW1           1.030000000        32.580000000         1.460000000 H        45 SOL      0.423800000
      137 HW2           0.350000000        33.050000000         0.050000000 H        45 SOL      0.423800000
      138 OW           19.930000000        16.360000000        34.540000000 O.3      46 SOL     -0.847600000
      139 HW1          20.300000000        17.120000000        34.000000000 H        46 SOL      0.423800000
      140 HW2          20.680000000        15.870000000        34.990000000 H        46 SOL      0.423800000
      141 OW            0.970000000         2.960000000         8.580000000 O.3      47 SOL     -0.847600000
      142 HW1           1.470000000         2.130000000         8.790000000 H        47 SOL      0.423800000
      143 HW2           0.030000000         2.890000000         8.920000000 H        47 SOL      0.423800000
      144 OW            4.700000000        19.740000000        16.860000000 O.3      48 SOL     -0.847600000
      145 HW1           5.060000000        18.910000000        17.290000000 H        48 SOL      0.423800000
      146 HW2           5.450000000        20.380000000        16.700000000 H        48 SOL      0.423800000
      147 OW            5.520000000        11.990000000        19.250000000 O.3      49 SOL     -0.847600000
      148 HW1           6.210000000        12.620000000        19.600000000 H        49 SOL      0.423800000
      149 HW2           5.970000000        11.240000000        18.770000000 H        49 SOL      0.423800000
      150 OW            2.910000000        12.490000000        18.790000000 O.3      50 SOL     -0.847600000
      151 HW1           3.810000000        12.060000000        18.810000000 H        50 SOL      0.423800000
      152 HW2           2.860000000        13.190000000        19.510000000 H        50 SOL      0.423800000
      153 OW           12.020000000        21.570000000         3.850000000 O.3      51 SOL     -0.847600000
      154 HW1          12.490000000        21.440000000         4.730000000 H        51 SOL      0.423800000
      155 HW2          11.140000000        22.010000000         4.010000000 H        51 SOL      0.423800000
      156 OW           20.150000000       -13.190000000        20.410000000 O.3      52 SOL     -0.847600000
      157 HW1          20.570000000       -13.640000000        19.630000000 H        52 SOL      0.423800000
      158 HW2          19.600000000       -12.420000000        20.100000000 H        52 SOL      0.423800000
      159 OW           13.990000000         9.930000000         4.400000000 O.3      53 SOL     -0.847600000
      160 HW1          14.400000000        10.710000000         3.920000000 H        53 SOL      0.423800000
      161 HW2          14.290000000         9.080000000         3.970000000 H        53 SOL      0.423800000
      162 OW           -5.650000000        13.590000000        34.370000000 O.3      54 SOL     -0.847600000
      163 HW1          -5.120000000        14.410000000        34.600000000 H        54 SOL      0.423800000
      164 HW2          -5.360000000        13.250000000        33.470000000 H        54 SOL      0.423800000
      165 OW            7.780000000        29.700000000        14.850000000 O.3      55 SOL     -0.847600000
      166 HW1           7.200000000        30.440000000        15.200000000 H        55 SOL      0.423800000
      167 HW2           7.240000000        28.860000000        14.810000000 H        55 SOL      0.423800000
      168 OW            0.640000000        19.260000000        13.900000000 O.3      56 SOL     -0.847600000
      169 HW1           1.180000000        18.420000000        13.880000000 H        56 SOL      0.423800000
      170 HW2          -0.130000000        19.170000000        13.270000000 H        56 SOL      0.423800000
      171 OW           -8.880000000         5.040000000         9.250000000 O.3      57 SOL     -0.847600000
      172 HW1          -8.170000000         5.700000000         9.010000000 H        57 SOL      0.423800000
      173 HW2          -9.340000000         5.340000000        10.090000000 H        57 SOL      0.423800000
      174 OW           17.960000000        20.610000000         8.700000000 O.3      58 SOL     -0.847600000
      175 HW1          17.590000000        19.850000000         8.170000000 H        58 SOL      0.423800000
      176 HW2          17.250000000        20.970000000         9.300000000 H        58 SOL      0.423800000
      177 OW            2.460000000        16.300000000         2.600000000 O.3      59 SOL     -0.847600000
      178 HW1           1.580000000        16.700000000         2.840000000 H        59 SOL      0.423800000
      179 HW2           3.010000000        16.180000000         3.430000000 H        59 SOL      0.423800000
      180 OW           26.100000000        30.550000000        16.970000000 O.3      60 SOL     -0.847600000
      181 HW1          25.540000000        29.730000000        17.040000000 H        60 SOL      0.423800000
      182 HW2          26.680000000        30.490000000        16.160000000 H        60 SOL      0.423800000
      183 OW           26.710000000         1.680000000        21.140000000 O.3      61 SOL     -0.847600000
      184 HW1          26.160000000         1.360000000        20.370000000 H        61 SOL      0.423800000
      185 HW2          26.460000000         2.620000000        21.360000000 H        61 SOL      0.423800000
      186 OW           34.780000000        18.990000000        18.650000000 O.3      62 SOL     -0.847600000
      187 HW1          35.520000000        18.610000000        18.090000000 H        62 SOL      0.423800000
      188 HW2          34.920000000        19.980000000        18.750000000 H        62 SOL      0.423800000
      189 OW           26.520000000        16.810000000         9.730000000 O.3      63 SOL     -0.847600000
      190 HW1          27.160000000        16.420000000         9.070000000 H        63 SOL      0.423800000
      191 HW2          26.090000000        16.070000000        10.250000000 H        63 SOL      0.423800000
      192 OW           19.320000000        16.300000000        24.660000000 O.3      64 SOL     -0.847600000
      193 HW1          20.140000000        16.720000000        25.040000000 H        64 SOL      0.423800000
      194 HW2          19.200000000        16.610000000        23.710000000 H        64 SOL      0.423800000
      195 OW           13.160000000        22.250000000        15.230000000 O.3      65 SOL     -0.847600000
      196 HW1          13.110000000        22.510000000        16.200000000 H        65 SOL      0.423800000
      197 HW2          12.240000000        22.210000000        14.850000000 H        65 SOL      0.423800000
      198 OW            8.770000000        16.610000000         7.220000000 O.3      66 SOL     -0.847600000
      199 HW1           9.290000000        17.020000000         7.970000000 H        66 SOL      0.423800000
      200 HW2           8.340000000        15.760000000         7.530000000 H        66 SOL      0.423800000
      201 OW           20.770000000         9.960000000         4.170000000 O.3      67 SOL     -0.847600000
      202 HW1          20.830000000         9.080000000         4.650000000 H        67 SOL      0.423800000
      203 HW2          19.980000000        10.470000000         4.520000000 H        67 SOL      0.423800000
      204 OW            1.000000000         4.930000000         4.280000000 O.3      68 SOL     -0.847600000
      205 HW1           0.700000000         4.100000000         3.810000000 H        68 SOL      0.423800000
      206 HW2           0.200000000         5.450000000         4.570000000 H        68 SOL      0.423800000
      207 OW            1.410000000        15.430000000         5.790000000 O.3      69 SOL     -0.847600000
      208 HW1           1.770000000        16.310000000         5.490000000 H        69 SOL      0.423800000
      209 HW2           2.160000000        14.890000000         6.180000000 H        69 SOL      0.423800000
      210 OW           18.430000000        24.550000000        26.470000000 O.3      70 SOL     -0.847600000
      211 HW1          18.560000000        24.310000000        25.510000000 H        70 SOL      0.423800000
      212 HW2          17.610000000        24.100000000        26.810000000 H        70 SOL      0.423800000
      213 OW           14.470000000         7.570000000         3.280000000 O.3      71 SOL     -0.847600000
      214 HW1          13.850000000         6.940000000         2.810000000 H        71 SOL      0.423800000
      215 HW2          14.990000000         7.070000000         3.970000000 H        71 SOL      0.423800000
      216 OW           14.870000000        12.060000000        38.670000000 O.3      72 SOL     -0.847600000
      217 HW1          14.490000000        12.400000000        37.810000000 H        72 SOL      0.423800000
      218 HW2          15.870000000        12.150000000        38.650000000 H        72 SOL      0.423800000
      219 OW           21.040000000         8.710000000        14.080000000 O.3      73 SOL     -0.847600000
      220 HW1          21.570000000         8.620000000        14.920000000 H        73 SOL      0.423800000
      221 HW2          20.070000000         8.550000000        14.270000000 H        73 SOL      0.423800000
      222 OW           21.750000000        23.120000000        24.200000000 O.3      74 SOL     -0.847600000
      223 HW1          22.700000000        23.170000000        24.530000000 H        74 SOL      0.423800000
      224 HW2          21.730000000        22.640000000        23.320000000 H        74 SOL      0.423800000
      225 OW            5.430000000        19.700000000        11.930000000 O.3      75 SOL     -0.847600000
      226 HW1           4.570000000        19.210000000        11.890000000 H        75 SOL      0.423800000
      227 HW2           5.920000000        19.610000000        11.060000000 H        75 SOL      0.423800000
      228 OW           17.900000000        22.730000000        21.090000000 O.3      76 SOL     -0.847600000
      229 HW1          17.070000000        22.180000000        21.040000000 H        76 SOL      0.423800000
      230 HW2          18.670000000        22.200000000        20.720000000 H        76 SOL      0.423800000
      231 OW           26.690000000        14.390000000        20.890000000 O.3      77 SOL     -0.847600000
      232 HW1          26.280000000        13.910000000        21.660000000 H        77 SOL      0.423800000
      233 HW2          27.600000000        14.720000000        21.150000000 H        77 SOL      0.423800000
      234 OW           31.850000000        14.340000000         7.120000000 O.3      78 SOL     -0.847600000
      235 HW1          31.780000000        14.730000000         6.200000000 H        78 SOL      0.423800000
      236 HW2          32.030000000        13.360000000         7.050000000 H        78 SOL      0.423800000
      237 OW           36.030000000         5.520000000         8.640000000 O.3      79 SOL     -0.847600000
      238 HW1          36.190000000         4.960000000         7.830000000 H        79 SOL      0.423800000
      239 HW2          35.730000000         6.430000000         8.370000000 H        79 SOL      0.423800000
      240 OW           -1.160000000        19.680000000       -22.490000000 O.3      80 SOL     -0.847600000
      241 HW1          -1.520000000        20.280000000       -21.770000000 H        80 SOL      0.423800000
      242 HW2          -0.590000000        18.970000000       -22.070000000 H        80 SOL      0.423800000
      243 OW           22.610000000        13.010000000        23.920000000 O.3      81 SOL     -0.847600000
      244 HW1          22.620000000        12.020000000        24.090000000 H        81 SOL      0.423800000
      245 HW2          22.080000000        13.460000000        24.640000000 H        81 SOL      0.423800000
      246 OW            2.270000000        -3.970000000        16.550000000 O.3      82 SOL     -0.847600000
      247 HW1           3.080000000        -4.490000000        16.290000000 H        82 SOL      0.423800000
      248 HW2           2.020000000        -3.340000000        15.820000000 H        82 SOL      0.423800000
      249 OW            0.710000000        19.760000000        10.210000000 O.3      83 SOL     -0.847600000
      250 HW1           1.100000000        19.950000000         9.310000000 H        83 SOL      0.423800000
      251 HW2           1.420000000        19.420000000        10.820000000 H        83 SOL      0.423800000
      252 OW           14.810000000        10.650000000        18.050000000 O.3      84 SOL     -0.847600000
      253 HW1          15.560000000        10.780000000        18.690000000 H        84 SOL      0.423800000
      254 HW2          15.160000000        10.630000000        17.120000000 H        84 SOL      0.423800000
      255 OW            4.380000000         5.450000000        22.160000000 O.3      85 SOL     -0.847600000
      256 HW1           4.280000000         6.400000000        22.460000000 H        85 SOL      0.423800000
      257 HW2           5.090000000         5.000000000        22.700000000 H        85 SOL      0.423800000
      258 OW            4.310000000        10.350000000         1.500000000 O.3      86 SOL     -0.847600000
      259 HW1           4.570000000        11.290000000         1.720000000 H        86 SOL      0.423800000
      260 HW2           4.980000000         9.720000000         1.880000000 H        86 SOL      0.423800000
      261 OW           27.350000000        22.310000000        10.790000000 O.3      87 SOL     -0.847600000
      262 HW1          27.430000000        22.560000000        11.760000000 H        87 SOL      0.423800000
      263 HW2          26.410000000        22.440000000        10.490000000 H        87 SOL      0.423800000
      264 OW            7.600000000        14.200000000         9.860000000 O.3      88 SOL     -0.847600000
      265 HW1           7.120000000        13.380000000        10.150000000 H        88 SOL      0.423800000
      266 HW2           7.520000000        14.300000000         8.870000000 H        88 SOL      0.423800000
      267 OW           19.370000000        24.780000000         8.630000000 O.3      89 SOL     -0.847600000
      268 HW1          19.530000000        23.890000000         8.190000000 H        89 SOL      0.423800000
      269 HW2          20.210000000        25.090000000         9.070000000 H        89 SOL      0.423800000
      270 OW           23.010000000        13.740000000        14.900000000 O.3      90 SOL     -0.847600000
      271 HW1          23.320000000        14.310000000        15.660000000 H        90 SOL      0.423800000
      272 HW2          22.310000000        14.230000000        14.390000000 H        90 SOL      0.423800000
      273 OW            0.300000000         9.380000000        -1.200000000 O.3      91 SOL     -0.847600000
      274 HW1           0.610000000        10.240000000        -0.810000000 H        91 SOL      0.423800000
      275 HW2           0.840000000         9.170000000        -2.020000000 H        91 SOL      0.423800000
      276 OW            7.440000000        12.210000000        25.670000000 O.3      92 SOL     -0.847600000
      277 HW1           8.250000000        12.100000000        25.100000000 H        92 SOL      0.423800000
      278 HW2           7.620000000        11.840000000        26.580000000 H        92 SOL      0.423800000
      279 OW           18.520000000         5.150000000        11.640000000 O.3      93 SOL     -0.847600000
      280 HW1          18.580000000         4.300000000        11.120000000 H        93 SOL      0.423800000
      281 HW2          18.640000000         4.970000000        12.610000000 H        93 SOL      0.423800000
      282 OW           21.080000000         7.860000000        22.490000000 O.3      94 SOL     -0.847600000
      283 HW1          20.470000000         8.570000000        22.840000000 H        94 SOL      0.423800000
      284 HW2          20.550000000         7.030000000        22.320000000 H        94 SOL      0.423800000
      285 OW            9.790000000        15.740000000        16.260000000 O.3      95 SOL     -0.847600000
      286 HW1          10.340000000        16.460000000        16.670000000 H        95 SOL      0.423800000
      287 HW2           9.460000000        15.120000000        16.970000000 H        95 SOL      0.423800000
      288 OW           11.290000000         2.450000000        24.490000000 O.3      96 SOL     -0.847600000
      289 HW1          11.230000000         3.130000000        25.220000000 H        96 SOL      0.423800000
      290 HW2          12.210000000         2.430000000        24.110000000 H        96 SOL      0.423800000
      291 OW            7.900000000         6.140000000        11.980000000 O.3      97 SOL     -0.847600000
      292 HW1           8.490000000         6.930000000        11.850000000 H        97 SOL      0.423800000
      293 HW2           7.980000000         5.800000000        12.910000000 H        97 SOL      0.423800000
      294 OW           23.200000000        -5.480000000        12.300000000 O.3      98 SOL     -0.847600000
      295 HW1          23.650000000        -5.490000000        11.410000000 H        98 SOL      0.423800000
      296 HW2          22.700000000        -4.620000000        12.420000000 H        98 SOL      0.423800000
      297 OW           14.860000000        14.510000000         9.860000000 O.3      99 SOL     -0.847600000
      298 HW1          14.820000000        13.850000000         9.120000000 H        99 SOL      0.423800000
      299 HW2          14.580000000        14.070000000        10.720000000 H        99 SOL      0.423800000
      300 OW            4.820000000        13.120000000        15.660000000 O.3     100 SOL     -0.847600000
      301 HW1           4.040000000        13.200000000        15.050000000 H       100 SOL      0.423800000
      302 HW2           4.800000000        13.850000000        16.340000000 H       100 SOL      0.423800000
      303 OW           18.150000000        11.280000000        29.750000000 O.3     101 SOL     -0.847600000
      304 HW1          17.600000000        10.680000000        30.330000000 H       101 SOL      0.423800000
      305 HW2          18.520000000        12.020000000        30.310000000 H       101 SOL      0.423800000
      306 OW            4.310000000         5.470000000        25.290000000 O.3     102 SOL     -0.847600000
      307 HW1           5.170000000         5.950000000        25.110000000 H       102 SOL      0.423800000
      308 HW2           3.830000000         5.940000000        26.040000000 H       102 SOL      0.423800000
      309 OW           24.130000000        19.640000000        -2.640000000 O.3     103 SOL     -0.847600000
      310 HW1          24.900000000        20.110000000        -3.080000000 H       103 SOL      0.423800000
      311 HW2          24.100000000        18.690000000        -2.960000000 H       103 SOL      0.423800000
      312 OW           11.390000000        13.310000000         1.210000000 O.3     104 SOL     -0.847600000
      313 HW1          12.160000000        13.850000000         1.540000000 H       104 SOL      0.423800000
      314 HW2          11.650000000        12.350000000         1.160000000 H       104 SOL      0.423800000
      315 OW           13.140000000         8.550000000        18.550000000 O.3     105 SOL     -0.847600000
      316 HW1          13.620000000         9.310000000        18.110000000 H       105 SOL      0.423800000
      317 HW2          13.140000000         8.700000000        19.540000000 H       105 SOL      0.423800000
      318 OW           25.230000000        14.250000000        10.900000000 O.3     106 SOL     -0.847600000
      319 HW1          25.940000000        13.880000000        10.300000000 H       106 SOL      0.423800000
      320 HW2          25.160000000        13.690000000        11.720000000 H       106 SOL      0.423800000
      321 OW           26.820000000        12.510000000         9.260000000 O.3     107 SOL     -0.847600000
      322 HW1          26.170000000        11.750000000         9.330000000 H       107 SOL      0.423800000
      323 HW2          27.640000000        12.300000000         9.780000000 H       107 SOL      0.423800000
      324 OW           19.960000000        28.710000000        24.540000000 O.3     108 SOL     -0.847600000
      325 HW1          19.230000000        29.180000000        25.040000000 H       108 SOL      0.423800000
      326 HW2          20.030000000        27.760000000        24.870000000 H       108 SOL      0.423800000
      327 OW            1.700000000        15.160000000        25.050000000 O.3     109 SOL     -0.847600000
      328 HW1           2.410000000        14.570000000        24.680000000 H       109 SOL      0.423800000
      329 HW2           2.030000000        15.600000000        25.890000000 H       109 SOL      0.423800000
      330 OW            3.720000000         6.510000000         7.260000000 O.3     110 SOL     -0.847600000
      331 HW1           3.200000000         5.690000000         7.020000000 H       110 SOL      0.423800000
      332 HW2           3.580000000         7.210000000         6.560000000 H       110 SOL      0.423800000
      333 OW           15.830000000        26.080000000        -0.030000000 O.3     111 SOL     -0.847600000
      334 HW1          15.880000000        25.080000000        -0.020000000 H       111 SOL      0.423800000
      335 HW2          16.630000000        26.450000000        -0.510000000 H       111 SOL      0.423800000
      336 OW           12.700000000        23.810000000         9.490000000 O.3     112 SOL     -0.847600000
      337 HW1          13.680000000        23.810000000         9.320000000 H       112 SOL      0.423800000
      338 HW2          12.480000000        23.120000000        10.190000000 H       112 SOL      0.423800000
      339 OW           11.380000000        19.460000000        21.130000000 O.3     113 SOL     -0.847600000
      340 HW1          10.610000000        19.420000000        20.490000000 H       113 SOL      0.423800000
      341 HW2          11.700000000        18.530000000        21.300000000 H       113 SOL      0.423800000
      342 OW           11.020000000        -3.120000000         6.850000000 O.3     114 SOL     -0.847600000
      343 HW1          11.130000000        -2.230000000         7.290000000 H       114 SOL      0.423800000
      344 HW2          11.890000000        -3.410000000         6.470000000 H       114 SOL      0.423800000
      345 OW           21.010000000        18.630000000        26.970000000 O.3     115 SOL     -0.847600000
      346 HW1          20.420000000        19.330000000        26.560000000 H       115 SOL      0.423800000
      347 HW2          21.940000000        18.730000000        26.630000000 H       115 SOL      0.423800000
      348 OW           27.600000000        -1.010000000        20.650000000 O.3     116 SOL     -0.847600000
      349 HW1          27.270000000        -0.070000000        20.770000000 H       116 SOL      0.423800000
      350 HW2          27.790000000        -1.170000000        19.680000000 H       116 SOL      0.423800000
      351 OW           -1.970000000         2.030000000        15.280000000 O.3     117 SOL     -0.847600000
      352 HW1          -2.310000000         1.230000000        15.770000000 H       117 SOL      0.423800000
      353 HW2          -2.720000000         2.660000000        15.100000000 H       117 SOL      0.423800000
      354 OW           12.010000000        22.930000000        22.910000000 O.3     118 SOL     -0.847600000
      355 HW1          11.300000000        23.540000000        23.250000000 H       118 SOL      0.423800000
      356 HW2          12.020000000        22.090000000        23.460000000 H       118 SOL      0.423800000
      357 OW           14.580000000        21.050000000        12.930000000 O.3     119 SOL     -0.847600000
      358 HW1          14.020000000        21.420000000        13.670000000 H       119 SOL      0.423800000
      359 HW2          15.190000000        20.350000000        13.290000000 H       119 SOL      0.423800000
      360 OW           10.550000000         9.530000000         0.790000000 O.3     120 SOL     -0.847600000
      361 HW1           9.720000000         8.980000000         0.790000000 H       120 SOL      0.423800000
      362 HW2          10.490000000        10.240000000         0.080000000 H       120 SOL      0.423800000
      363 OW            6.960000000        28.280000000         2.540000000 O.3     121 SOL     -0.847600000
      364 HW1           7.730000000        27.740000000         2.890000000 H       121 SOL      0.423800000
      365 HW2           6.680000000        27.930000000         1.650000000 H       121 SOL      0.423800000
      366 OW            8.620000000         9.680000000        21.690000000 O.3     122 SOL     -0.847600000
      367 HW1           9.230000000         9.990000000        20.970000000 H       122 SOL      0.423800000
      368 HW2           7.960000000         9.030000000        21.320000000 H       122 SOL      0.423800000
      369 OW           25.790000000        16.950000000        19.220000000 O.3     123 SOL     -0.847600000
      370 HW1          24.790000000        16.990000000        19.240000000 H       123 SOL      0.423800000
      371 HW2          26.100000000        16.110000000        19.650000000 H       123 SOL      0.423800000
      372 OW           12.610000000        15.600000000         8.570000000 O.3     124 SOL     -0.847600000
      373 HW1          12.560000000        16.590000000         8.500000000 H       124 SOL      0.423800000
      374 HW2          13.410000000        15.340000000         9.120000000 H       124 SOL      0.423800000
      375 OW           11.920000000        24.940000000        26.210000000 O.3     125 SOL     -0.847600000
      376 HW1          11.570000000        25.210000000        27.110000000 H       125 SOL      0.423800000
      377 HW2          11.520000000        25.530000000        25.510000000 H       125 SOL      0.423800000
      378 OW            4.720000000        12.300000000         7.090000000 O.3     126 SOL     -0.847600000
      379 HW1           5.410000000        11.980000000         7.750000000 H       126 SOL      0.423800000
      380 HW2           4.280000000        13.120000000         7.450000000 H       126 SOL      0.423800000
      381 OW           22.640000000        11.510000000        11.450000000 O.3     127 SOL     -0.847600000
      382 HW1          22.580000000        10.510000000        11.430000000 H       127 SOL      0.423800000
      383 HW2          23.480000000        11.780000000        11.910000000 H       127 SOL      0.423800000
      384 OW           22.190000000        16.290000000        16.650000000 O.3     128 SOL     -0.847600000
      385 HW1          22.110000000        15.910000000        17.580000000 H       128 SOL      0.423800000
      386 HW2          21.340000000        16.100000000        16.150000000 H       128 SOL      0.423800000
      387 OW           20.140000000        18.130000000        13.250000000 O.3     129 SOL     -0.847600000
      388 HW1          19.940000000        18.410000000        12.310000000 H       129 SOL      0.423800000
      389 HW2          21.080000000        18.390000000        13.490000000 H       129 SOL      0.423800000
      390 OW           22.890000000        35.190000000         2.190000000 O.3     130 SOL     -0.847600000
      391 HW1          22.510000000        35.250000000         1.270000000 H       130 SOL      0.423800000
      392 HW2          22.150000000        35.090000000         2.850000000 H       130 SOL      0.423800000
      393 OW            4.350000000         5.520000000        14.630000000 O.3     131 SOL     -0.847600000
      394 HW1           3.680000000         6.220000000        14.390000000 H       131 SOL      0.423800000
      395 HW2           5.180000000         5.960000000        14.960000000 H       131 SOL      0.423800000
      396 OW           16.770000000         7.210000000        16.570000000 O.3     132 SOL     -0.847600000
      397 HW1          16.240000000         7.850000000        16.010000000 H       132 SOL      0.423800000
      398 HW2          16.150000000         6.540000000        16.980000000 H       132 SOL      0.423800000
      399 OW            5.980000000         8.600000000        27.270000000 O.3     133 SOL     -0.847600000
      400 HW1           5.720000000         7.930000000        27.970000000 H       133 SOL      0.423800000
      401 HW2           6.690000000         9.200000000        27.630000000 H       133 SOL      0.423800000
      402 OW            7.470000000        21.950000000         6.890000000 O.3     134 SOL     -0.847600000
      403 HW1           7.790000000        21.260000000         6.240000000 H       134 SOL      0.423800000
      404 HW2           8.100000000        21.990000000         7.670000000 H       134 SOL      0.423800000
      405 OW           16.450000000        15.100000000        14.640000000 O.3     135 SOL     -0.847600000
      406 HW1          17.160000000        14.410000000        14.490000000 H       135 SOL      0.423800000
      407 HW2          16.340000000        15.650000000        13.810000000 H       135 SOL      0.423800000
      408 OW           18.870000000        19.200000000        16.290000000 O.3     136 SOL     -0.847600000
      409 HW1          18.110000000        19.020000000        15.670000000 H       136 SOL      0.423800000
      410 HW2          19.100000000        18.360000000        16.790000000 H       136 SOL      0.423800000
      411 OW           13.370000000         8.510000000        -3.650000000 O.3     137 SOL     -0.847600000
      412 HW1          12.910000000         7.730000000        -3.220000000 H       137 SOL      0.423800000
      413 HW2          14.360000000         8.360000000        -3.620000000 H       137 SOL      0.423800000
      414 OW           -3.130000000        12.030000000         5.910000000 O.3     138 SOL     -0.847600000
      415 HW1          -3.100000000        11.350000000         5.180000000 H       138 SOL      0.423800000
      416 HW2          -2.470000000        12.760000000         5.710000000 H       138 SOL      0.423800000
      417 OW            4.070000000        17.680000000        -3.640000000 O.3     139 SOL     -0.847600000
      418 HW1           4.330000000        16.730000000        -3.470000000 H       139 SOL      0.423800000
      419 HW2           3.180000000        17.860000000        -3.210000000 H       139 SOL      0.423800000
      420 OW            4.970000000        22.360000000         9.320000000 O.3     140 SOL     -0.847600000
      421 HW1           4.140000000        22.540000000         9.860000000 H       140 SOL      0.423800000
      422 HW2           5.340000000        23.230000000         9.000000000 H       140 SOL      0.423800000
      423 OW           13.530000000        18.180000000         4.780000000 O.3     141 SOL     -0.847600000
      424 HW1          12.680000000        17.810000000         4.410000000 H       141 SOL      0.423800000
      425 HW2          14.260000000        17.500000000         4.710000000 H       141 SOL      0.423800000
      426 OW           -6.190000000        17.440000000         4.010000000 O.3     142 SOL     -0.847600000
      427 HW1          -5.440000000        17.480000000         3.360000000 H       142 SOL      0.423800000
      428 HW2          -5.850000000        17.700000000         4.920000000 H       142 SOL      0.423800000
      429 OW           -3.720000000         3.330000000        17.660000000 O.3     143 SOL     -0.847600000
      430 HW1          -4.050000000         2.390000000        17.790000000 H       143 SOL      0.423800000
      431 HW2          -3.050000000         3.540000000        18.370000000 H       143 SOL      0.423800000
      432 OW           20.810000000         9.110000000        34.540000000 O.3     144 SOL     -0.847600000
      433 HW1          19.930000000         9.580000000        34.570000000 H       144 SOL      0.423800000
      434 HW2          21.380000000         9.510000000        33.820000000 H       144 SOL      0.423800000
      435 OW           14.550000000         2.230000000         2.060000000 O.3     145 SOL     -0.847600000
      436 HW1          13.890000000         1.500000000         2.250000000 H       145 SOL      0.423800000
      437 HW2          15.060000000         2.010000000         1.230000000 H       145 SOL      0.423800000
      438 OW           19.230000000        16.790000000        17.700000000 O.3     146 SOL     -0.847600000
      439 HW1          18.360000000        16.330000000        17.520000000 H       146 SOL      0.423800000
      440 HW2          19.560000000        16.540000000        18.610000000 H       146 SOL      0.423800000
      441 OW           27.280000000         4.280000000        31.480000000 O.3     147 SOL     -0.847600000
      442 HW1          26.580000000         4.470000000        30.790000000 H       147 SOL      0.423800000
      443 HW2          26.850000000         3.860000000        32.270000000 H       147 SOL      0.423800000
      444 OW           17.270000000        13.550000000        21.550000000 O.3     148 SOL     -0.847600000
      445 HW1          17.390000000        12.980000000        22.350000000 H       148 SOL      0.423800000
      446 HW2          16.800000000        14.400000000        21.810000000 H       148 SOL      0.423800000
      447 OW            7.220000000        22.070000000        21.230000000 O.3     149 SOL     -0.847600000
      448 HW1           6.620000000        22.750000000        21.650000000 H       149 SOL      0.423800000
      449 HW2           6.780000000        21.170000000        21.280000000 H       149 SOL      0.423800000
      450 OW            4.240000000        21.100000000         6.220000000 O.3     150 SOL     -0.847600000
      451 HW1           4.720000000        21.270000000         7.080000000 H       150 SOL      0.423800000
      452 HW2           4.330000000        21.890000000         5.620000000 H       150 SOL      0.423800000
      453 OW           21.850000000         5.610000000        15.880000000 O.3     151 SOL     -0.847600000
      454 HW1          22.100000000         4.910000000        16.540000000 H       151 SOL      0.423800000
      455 HW2          21.350000000         5.180000000        15.120000000 H       151 SOL      0.423800000
      456 OW            9.660000000        10.580000000        17.460000000 O.3     152 SOL     -0.847600000
      457 HW1           9.420000000        11.000000000        16.580000000 H       152 SOL      0.423800000
      458 HW2          10.120000000         9.710000000        17.300000000 H       152 SOL      0.423800000
      459 OW           22.600000000         3.770000000        23.900000000 O.3     153 SOL     -0.847600000
      460 HW1          21.710000000         4.030000000        24.260000000 H       153 SOL      0.423800000
      461 HW2          23.140000000         4.590000000        23.690000000 H       153 SOL      0.423800000
      462 OW           12.110000000        16.640000000        21.720000000 O.3     154 SOL     -0.847600000
      463 HW1          12.930000000        16.070000000        21.730000000 H       154 SOL      0.423800000
      464 HW2          11.630000000        16.550000000        22.590000000 H       154 SOL      0.423800000
      465 OW           -0.850000000        23.600000000        18.500000000 O.3     155 SOL     -0.847600000
      466 HW1           0.030000000        24.070000000        18.560000000 H       155 SOL      0.423800000
      467 HW2          -0.690000000        22.620000000        18.390000000 H       155 SOL      0.423800000
      468 OW           11.760000000        19.470000000        13.140000000 O.3     156 SOL     -0.847600000
      469 HW1          11.060000000        18.800000000        13.390000000 H       156 SOL      0.423800000
      470 HW2          11.390000000        20.390000000        13.260000000 H       156 SOL      0.423800000
      471 OW            1.810000000        15.490000000        16.380000000 O.3     157 SOL     -0.847600000
      472 HW1           1.390000000        14.770000000        16.920000000 H       157 SOL      0.423800000
      473 HW2           1.410000000        16.370000000        16.620000000 H       157 SOL      0.423800000
      474 OW           18.390000000        20.800000000        12.840000000 O.3     158 SOL     -0.847600000
      475 HW1          17.830000000        20.410000000        13.570000000 H       158 SOL      0.423800000
      476 HW2          19.360000000        20.610000000        13.020000000 H       158 SOL      0.423800000
      477 OW            9.260000000        29.260000000        10.040000000 O.3     159 SOL     -0.847600000
      478 HW1           8.900000000        29.860000000        10.760000000 H       159 SOL      0.423800000
      479 HW2          10.080000000        29.680000000         9.640000000 H       159 SOL      0.423800000
      480 OW           31.420000000        20.380000000         9.570000000 O.3     160 SOL     -0.847600000
      481 HW1          32.330000000        20.750000000         9.350000000 H       160 SOL      0.423800000
      482 HW2          30.720000000        21.040000000         9.320000000 H       160 SOL      0.423800000
      483 OW           -1.840000000        -2.730000000        12.770000000 O.3     161 SOL     -0.847600000
      484 HW1          -2.100000000        -1.770000000        12.720000000 H       161 SOL      0.423800000
      485 HW2          -1.280000000        -2.890000000        13.580000000 H       161 SOL      0.423800000
      486 OW            2.580000000        20.480000000        24.260000000 O.3     162 SOL     -0.847600000
      487 HW1           2.660000000        20.590000000        23.270000000 H       162 SOL      0.423800000
      488 HW2           1.620000000        20.600000000        24.520000000 H       162 SOL      0.423800000
      489 OW           13.890000000        -0.360000000        -3.410000000 O.3     163 SOL     -0.847600000
      490 HW1          13.090000000        -0.340000000        -4.000000000 H       163 SOL      0.423800000
      491 HW2          13.650000000        -0.820000000        -2.550000000 H       163 SOL      0.423800000
      492 OW            2.420000000        11.060000000        31.350000000 O.3     164 SOL     -0.847600000
      493 HW1           3.110000000        11.310000000        32.020000000 H       164 SOL      0.423800000
      494 HW2           1.570000000        10.810000000        31.820000000 H       164 SOL      0.423800000
      495 OW           16.710000000         4.030000000        19.030000000 O.3     165 SOL     -0.847600000
      496 HW1          16.290000000         4.820000000        18.580000000 H       165 SOL      0.423800000
      497 HW2          17.040000000         4.300000000        19.930000000 H       165 SOL      0.423800000
      498 OW           23.050000000        24.230000000        16.150000000 O.3     166 SOL     -0.847600000
      499 HW1          23.240000000        24.060000000        17.120000000 H       166 SOL      0.423800000
      500 HW2          23.730000000        23.770000000        15.590000000 H       166 SOL      0.423800000
      501 OW            5.980000000        23.970000000        25.870000000 O.3     167 SOL     -0.847600000
      502 HW1           5.200000000        24.600000000        25.800000000 H       167 SOL      0.423800000
      503 HW2           5.730000000        23.090000000        25.470000000 H       167 SOL      0.423800000
      504 OW           20.010000000        10.380000000        23.030000000 O.3     168 SOL     -0.847600000
      505 HW1          19.180000000        10.650000000        23.510000000 H       168 SOL      0.423800000
      506 HW2          20.130000000        10.970000000        22.230000000 H       168 SOL      0.423800000
      507 OW           21.700000000         4.060000000         5.640000000 O.3     169 SOL     -0.847600000
      508 HW1          22.130000000         4.960000000         5.540000000 H       169 SOL      0.423800000
      509 HW2          21.120000000         3.890000000         4.850000000 H       169 SOL      0.423800000
      510 OW           -0.180000000        17.110000000        27.830000000 O.3     170 SOL     -0.847600000
      511 HW1          -0.550000000        16.510000000        27.120000000 H       170 SOL      0.423800000
      512 HW2          -0.470000000        16.770000000        28.730000000 H       170 SOL      0.423800000
      513 OW           24.400000000         3.770000000        16.930000000 O.3     171 SOL     -0.847600000
      514 HW1          23.950000000         3.050000000        16.410000000 H       171 SOL      0.423800000
      515 HW2          24.030000000         3.810000000        17.850000000 H       171 SOL      0.423800000
      516 OW           -8.310000000        19.070000000         3.380000000 O.3     172 SOL     -0.847600000
      517 HW1          -7.580000000        18.390000000         3.450000000 H       172 SOL      0.423800000
      518 HW2          -8.780000000        18.980000000         2.500000000 H       172 SOL      0.423800000
      519 OW           28.300000000        17.220000000        14.480000000 O.3     173 SOL     -0.847600000
      520 HW1          29.220000000        17.200000000        14.870000000 H       173 SOL      0.423800000
      521 HW2          27.640000000        16.880000000        15.160000000 H       173 SOL      0.423800000
      522 OW            7.600000000         7.110000000        20.620000000 O.3     174 SOL     -0.847600000
      523 HW1           7.570000000         7.150000000        19.630000000 H       174 SOL      0.423800000
      524 HW2           7.010000000         6.360000000        20.940000000 H       174 SOL      0.423800000
      525 OW           13.030000000        10.170000000        11.350000000 O.3     175 SOL     -0.847600000
      526 HW1          13.760000000         9.500000000        11.190000000 H       175 SOL      0.423800000
      527 HW2          12.520000000        10.320000000        10.510000000 H       175 SOL      0.423800000
      528 OW           15.710000000         5.500000000        25.620000000 O.3     176 SOL     -0.847600000
      529 HW1          14.950000000         5.980000000        26.060000000 H       176 SOL      0.423800000
      530 HW2          15.400000000         5.060000000        24.780000000 H       176 SOL      0.423800000
      531 OW           15.890000000        16.050000000        21.320000000 O.3     177 SOL     -0.847600000
      532 HW1          15.440000000        16.100000000        20.430000000 H       177 SOL      0.423800000
      533 HW2          16.140000000        16.980000000        21.610000000 H       177 SOL      0.423800000
      534 OW            8.690000000        18.490000000         1.730000000 O.3     178 SOL     -0.847600000
      535 HW1           9.400000000        19.130000000         1.460000000 H       178 SOL      0.423800000
      536 HW2           9.110000000        17.680000000         2.150000000 H       178 SOL      0.423800000
      537 OW            5.730000000         7.990000000        11.500000000 O.3     179 SOL     -0.847600000
      538 HW1           5.080000000         7.800000000        10.760000000 H       179 SOL      0.423800000
      539 HW2           6.400000000         7.250000000        11.550000000 H       179 SOL      0.423800000
      540 OW           -0.760000000        19.710000000        31.080000000 O.3     180 SOL     -0.847600000
      541 HW1          -0.010000000        20.340000000        30.890000000 H       180 SOL      0.423800000
      542 HW2          -0.430000000        18.950000000        31.640000000 H       180 SOL      0.423800000
      543 OW           -1.830000000         1.810000000         6.530000000 O.3     181 SOL     -0.847600000
      544 HW1          -1.130000000         1.280000000         6.050000000 H       181 SOL      0.423800000
      545 HW2          -1.840000000         2.740000000         6.170000000 H       181 SOL      0.423800000
      546 OW           20.080000000        22.580000000         4.800000000 O.3     182 SOL     -0.847600000
      547 HW1          20.350000000        23.490000000         4.500000000 H       182 SOL      0.423800000
      548 HW2          19.420000000        22.190000000         4.150000000 H       182 SOL      0.423800000
      549 OW           19.110000000        17.840000000         6.570000000 O.3     183 SOL     -0.847600000
      550 HW1          19.870000000        18.200000000         7.120000000 H       183 SOL      0.423800000
      551 HW2          18.300000000        18.410000000         6.700000000 H       183 SOL      0.423800000
      552 OW           15.300000000        -0.750000000        13.990000000 O.3     184 SOL     -0.847600000
      553 HW1          14.460000000        -1.290000000        13.990000000 H       184 SOL      0.423800000
      554 HW2          15.880000000        -1.020000000        14.760000000 H       184 SOL      0.423800000
      555 OW            8.140000000        29.320000000         7.480000000 O.3     185 SOL     -0.847600000
      556 HW1           8.850000000        28.770000000         7.050000000 H       185 SOL      0.423800000
      557 HW2           8.390000000        29.520000000         8.430000000 H       185 SOL      0.423800000
      558 OW           17.230000000        27.770000000         3.100000000 O.3     186 SOL     -0.847600000
      559 HW1          16.280000000        27.520000000         2.920000000 H       186 SOL      0.423800000
      560 HW2          17.420000000        28.670000000         2.720000000 H       186 SOL      0.423800000
      561 OW           14.040000000       -11.140000000        16.540000000 O.3     187 SOL     -0.847600000
      562 HW1          14.870000000       -11.040000000        15.990000000 H       187 SOL      0.423800000
      563 HW2          13.440000000       -11.820000000        16.120000000 H       187 SOL      0.423800000
      564 OW           -3.270000000         6.370000000         9.830000000 O.3     188 SOL     -0.847600000
      565 HW1          -3.760000000         5.710000000         9.250000000 H       188 SOL      0.423800000
      566 HW2          -3.750000000         7.250000000         9.800000000 H       188 SOL      0.423800000
      567 OW            8.530000000        19.090000000        -1.140000000 O.3     189 SOL     -0.847600000
      568 HW1           7.780000000        19.310000000        -1.760000000 H       189 SOL      0.423800000
      569 HW2           8.190000000        19.020000000        -0.200000000 H       189 SOL      0.423800000
      570 OW           23.730000000        14.980000000        19.330000000 O.3     190 SOL     -0.847600000
      571 HW1          23.490000000        14.180000000        19.880000000 H       190 SOL      0.423800000
      572 HW2          24.250000000        14.680000000        18.530000000 H       190 SOL      0.423800000
      573 OW           15.010000000        20.980000000         0.140000000 O.3     191 SOL     -0.847600000
      574 HW1          14.310000000        21.550000000         0.570000000 H       191 SOL      0.423800000
      575 HW2          15.100000000        20.120000000         0.650000000 H       191 SOL      0.423800000
      576 OW           23.720000000         2.410000000        10.600000000 O.3     192 SOL     -0.847600000
      577 HW1          24.550000000         2.180000000        11.110000000 H       192 SOL      0.423800000
      578 HW2          23.320000000         3.250000000        10.980000000 H       192 SOL      0.423800000
      579 OW            0.390000000         8.610000000        -5.040000000 O.3     193 SOL     -0.847600000
      580 HW1          -0.420000000         8.900000000        -4.530000000 H       193 SOL      0.423800000
      581 HW2           0.180000000         8.560000000        -6.020000000 H       193 SOL      0.423800000
      582 OW           31.090000000        17.810000000         9.560000000 O.3     194 SOL     -0.847600000
      583 HW1          31.220000000        18.790000000         9.370000000 H       194 SOL      0.423800000
      584 HW2          31.770000000        17.510000000        10.230000000 H       194 SOL      0.423800000
      585 OW            4.500000000        -1.780000000         3.590000000 O.3     195 SOL     -0.847600000
      586 HW1           5.210000000        -1.630000000         2.920000000 H       195 SOL      0.423800000
      587 HW2           4.290000000        -0.930000000         4.070000000 H       195 SOL      0.423800000
      588 OW           20.520000000        -1.690000000        15.160000000 O.3     196 SOL     -0.847600000
      589 HW1          21.240000000        -1.230000000        15.680000000 H       196 SOL      0.423800000
      590 HW2          19.710000000        -1.820000000        15.740000000 H       196 SOL      0.423800000
      591 OW           16.750000000        -0.850000000        11.260000000 O.3     197 SOL     -0.847600000
      592 HW1          17.720000000        -1.070000000        11.340000000 H       197 SOL      0.423800000
      593 HW2          16.320000000        -0.900000000        12.160000000 H       197 SOL      0.423800000
      594 OW            4.950000000        22.980000000        22.810000000 O.3     198 SOL     -0.847600000
      595 HW1           4.460000000        22.210000000        23.210000000 H       198 SOL      0.423800000
      596 HW2           4.310000000        23.740000000        22.650000000 H       198 SOL      0.423800000
      597 OW            8.510000000        11.580000000        -9.700000000 O.3     199 SOL     -0.847600000
      598 HW1           7.600000000        11.640000000       -10.130000000 H       199 SOL      0.423800000
      599 HW2           9.090000000        12.310000000       -10.050000000 H       199 SOL      0.423800000
      600 OW            6.310000000        10.470000000        12.260000000 O.3     200 SOL     -0.847600000
      601 HW1           7.230000000        10.740000000        11.980000000 H       200 SOL      0.423800000
      602 HW2           6.120000000         9.550000000        11.940000000 H       200 SOL      0.423800000
      603 OW           24.950000000        -2.360000000         2.050000000 O.3     201 SOL     -0.847600000
      604 HW1          24.740000000        -2.690000000         1.130000000 H       201 SOL      0.423800000
      605 HW2          25.850000000        -2.700000000         2.330000000 H       201 SOL      0.423800000
      606 OW           15.320000000         2.440000000         9.020000000 O.3     202 SOL     -0.847600000
      607 HW1          15.370000000         3.430000000         8.870000000 H       202 SOL      0.423800000
      608 HW2          15.770000000         2.210000000         9.880000000 H       202 SOL      0.423800000
      609 OW           30.980000000        22.380000000        12.150000000 O.3     203 SOL     -0.847600000
      610 HW1          30.390000000        21.570000000        12.140000000 H       203 SOL      0.423800000
      611 HW2          31.670000000        22.300000000        11.440000000 H       203 SOL      0.423800000
      612 OW            1.700000000         5.210000000        10.530000000 O.3     204 SOL     -0.847600000
      613 HW1           2.130000000         5.020000000        11.410000000 H       204 SOL      0.423800000
      614 HW2           1.660000000         4.360000000        10.000000000 H       204 SOL      0.423800000
      615 OW           16.010000000        11.380000000        27.820000000 O.3     205 SOL     -0.847600000
      616 HW1          15.980000000        10.690000000        27.090000000 H       205 SOL      0.423800000
      617 HW2          16.780000000        11.190000000        28.420000000 H       205 SOL      0.423800000
      618 OW            5.990000000        14.970000000        -1.300000000 O.3     206 SOL     -0.847600000
      619 HW1           6.950000000        15.090000000        -1.550000000 H       206 SOL      0.423800000
      620 HW2           5.830000000        15.370000000        -0.390000000 H       206 SOL      0.423800000
      621 OW           24.950000000        37.510000000         1.930000000 O.3     207 SOL     -0.847600000
      622 HW1          24.160000000        36.900000000         2.050000000 H       207 SOL      0.423800000
      623 HW2          25.610000000        37.340000000         2.670000000 H       207 SOL      0.423800000
      624 OW            5.810000000        29.490000000        17.520000000 O.3     208 SOL     -0.847600000
      625 HW1           5.390000000        29.330000000        18.410000000 H       208 SOL      0.423800000
      626 HW2           5.720000000        28.660000000        16.960000000 H       208 SOL      0.423800000
      627 OW            9.100000000        29.630000000        18.830000000 O.3     209 SOL     -0.847600000
      628 HW1           9.920000000        30.070000000        19.210000000 H       209 SOL      0.423800000
      629 HW2           8.620000000        30.270000000        18.230000000 H       209 SOL      0.423800000
      630 OW           11.290000000        14.440000000         6.570000000 O.3     210 SOL     -0.847600000
      631 HW1          10.370000000        14.740000000         6.820000000 H       210 SOL      0.423800000
      632 HW2          11.920000000        14.640000000         7.330000000 H       210 SOL      0.423800000
      633 OW           21.240000000        20.340000000        15.170000000 O.3     211 SOL     -0.847600000
      634 HW1          20.280000000        20.310000000        15.470000000 H       211 SOL      0.423800000
      635 HW2          21.420000000        21.220000000        14.730000000 H       211 SOL      0.423800000
      636 OW            9.020000000        26.980000000        18.260000000 O.3     212 SOL     -0.847600000
      637 HW1           8.050000000        26.790000000        18.130000000 H       212 SOL      0.423800000
      638 HW2           9.200000000        27.940000000        18.050000000 H       212 SOL      0.423800000
      639 OW           31.750000000        13.750000000        13.790000000 O.3     213 SOL     -0.847600000
      640 HW1          31.110000000        13.680000000        14.560000000 H       213 SOL      0.423800000
      641 HW2          32.540000000        14.290000000        14.070000000 H       213 SOL      0.423800000
      642 OW           13.310000000        15.270000000         2.200000000 O.3     214 SOL     -0.847600000
      643 HW1          13.230000000        16.020000000         1.550000000 H       214 SOL      0.423800000
      644 HW2          12.760000000        15.480000000         3.010000000 H       214 SOL      0.423800000
      645 OW            7.650000000        21.920000000         2.680000000 O.3     215 SOL     -0.847600000
      646 HW1           8.420000000        21.820000000         2.050000000 H       215 SOL      0.423800000
      647 HW2           6.940000000        22.480000000         2.260000000 H       215 SOL      0.423800000
      648 OW           -1.740000000         0.440000000        13.000000000 O.3     216 SOL     -0.847600000
      649 HW1          -1.450000000         1.110000000        12.320000000 H       216 SOL      0.423800000
      650 HW2          -1.480000000         0.740000000        13.910000000 H       216 SOL      0.423800000
      651 OW           23.960000000         5.720000000        13.710000000 O.3     217 SOL     -0.847600000
      652 HW1          23.310000000         5.950000000        14.430000000 H       217 SOL      0.423800000
      653 HW2          24.240000000         6.560000000        13.230000000 H       217 SOL      0.423800000
      654 OW           16.920000000        10.050000000         7.090000000 O.3     218 SOL     -0.847600000
      655 HW1          17.130000000        10.320000000         8.030000000 H       218 SOL      0.423800000
      656 HW2          16.330000000         9.240000000         7.110000000 H       218 SOL      0.423800000
      657 OW            8.030000000        25.970000000         1.360000000 O.3     219 SOL     -0.847600000
      658 HW1           8.460000000        26.470000000         0.610000000 H       219 SOL      0.423800000
      659 HW2           7.410000000        25.280000000         0.990000000 H       219 SOL      0.423800000
      660 OW            4.850000000         2.980000000         4.310000000 O.3     220 SOL     -0.847600000
      661 HW1           5.060000000         3.540000000         5.110000000 H       220 SOL      0.423800000
      662 HW2           5.540000000         3.140000000         3.600000000 H       220 SOL      0.423800000
      663 OW           10.360000000        13.670000000        14.690000000 O.3     221 SOL     -0.847600000
      664 HW1          11.180000000        13.280000000        15.120000000 H       221 SOL      0.423800000
      665 HW2          10.030000000        14.440000000        15.250000000 H       221 SOL      0.423800000
      666 OW           -1.990000000         1.000000000        23.410000000 O.3     222 SOL     -0.847600000
      667 HW1          -1.440000000         0.390000000        23.990000000 H       222 SOL      0.423800000
      668 HW2          -1.920000000         1.940000000        23.750000000 H       222 SOL      0.423800000
      669 OW           13.910000000        20.740000000         5.780000000 O.3     223 SOL     -0.847600000
      670 HW1          14.100000000        20.720000000         6.760000000 H       223 SOL      0.423800000
      671 HW2          14.240000000        19.890000000         5.360000000 H       223 SOL      0.423800000
      672 OW           19.170000000        -1.390000000        12.460000000 O.3     224 SOL     -0.847600000
      673 HW1          18.810000000        -2.290000000        12.200000000 H       224 SOL      0.423800000
      674 HW2          19.860000000        -1.510000000        13.170000000 H       224 SOL      0.423800000
      675 OW            6.340000000        11.410000000         9.280000000 O.3     225 SOL     -0.847600000
      676 HW1           5.650000000        11.730000000         9.920000000 H       225 SOL      0.423800000
      677 HW2           6.360000000        10.410000000         9.270000000 H       225 SOL      0.423800000
      678 OW           28.690000000         4.670000000        19.700000000 O.3     226 SOL     -0.847600000
      679 HW1          28.960000000         4.950000000        20.620000000 H       226 SOL      0.423800000
      680 HW2          27.830000000         5.120000000        19.450000000 H       226 SOL      0.423800000
      681 OW            0.360000000       -11.240000000        17.660000000 O.3     227 SOL     -0.847600000
      682 HW1          -0.310000000       -11.930000000        17.360000000 H       227 SOL      0.423800000
      683 HW2           1.080000000       -11.690000000        18.190000000 H       227 SOL      0.423800000
      684 OW           19.760000000         7.620000000        26.930000000 O.3     228 SOL     -0.847600000
      685 HW1          20.740000000         7.720000000        26.770000000 H       228 SOL      0.423800000
      686 HW2          19.580000000         7.590000000        27.920000000 H       228 SOL      0.423800000
      687 OW           19.050000000         6.980000000        15.020000000 O.3     229 SOL     -0.847600000
      688 HW1          18.290000000         6.990000000        15.660000000 H       229 SOL      0.423800000
      689 HW2          19.390000000         6.050000000        14.910000000 H       229 SOL      0.423800000
      690 OW           21.400000000        18.450000000        19.550000000 O.3     230 SOL     -0.847600000
      691 HW1          21.000000000        17.540000000        19.410000000 H       230 SOL      0.423800000
      692 HW2          21.830000000        18.750000000        18.690000000 H       230 SOL      0.423800000
      693 OW           21.560000000        18.570000000         7.990000000 O.3     231 SOL     -0.847600000
      694 HW1          22.140000000        18.410000000         7.190000000 H       231 SOL      0.423800000
      695 HW2          22.040000000        19.150000000         8.640000000 H       231 SOL      0.423800000
      696 OW           20.450000000        19.800000000        10.870000000 O.3     232 SOL     -0.847600000
      697 HW1          19.810000000        20.010000000        10.140000000 H       232 SOL      0.423800000
      698 HW2          21.360000000        20.120000000        10.630000000 H       232 SOL      0.423800000
      699 OW            4.800000000        13.890000000        12.080000000 O.3     233 SOL     -0.847600000
      700 HW1           3.970000000        13.850000000        12.630000000 H       233 SOL      0.423800000
      701 HW2           5.600000000        13.890000000        12.670000000 H       233 SOL      0.423800000
      702 OW           22.820000000         6.440000000         4.980000000 O.3     234 SOL     -0.847600000
      703 HW1          23.380000000         7.190000000         5.320000000 H       234 SOL      0.423800000
      704 HW2          22.430000000         6.690000000         4.090000000 H       234 SOL      0.423800000
      705 OW           20.450000000        29.000000000         8.270000000 O.3     235 SOL     -0.847600000
      706 HW1          19.480000000        28.890000000         8.030000000 H       235 SOL      0.423800000
      707 HW2          21.000000000        28.950000000         7.430000000 H       235 SOL      0.423800000
      708 OW           13.720000000        26.690000000        -7.970000000 O.3     236 SOL     -0.847600000
      709 HW1          13.050000000        25.990000000        -7.710000000 H       236 SOL      0.423800000
      710 HW2          14.620000000        26.440000000        -7.620000000 H       236 SOL      0.423800000
      711 OW            9.400000000        14.060000000        18.560000000 O.3     237 SOL     -0.847600000
      712 HW1           9.420000000        14.850000000        19.180000000 H       237 SOL      0.423800000
      713 HW2          10.310000000        13.640000000        18.520000000 H       237 SOL      0.423800000
      714 OW           20.200000000         7.320000000         5.020000000 O.3     238 SOL     -0.847600000
      715 HW1          21.040000000         6.810000000         5.220000000 H       238 SOL      0.423800000
      716 HW2          19.440000000         6.920000000         5.520000000 H       238 SOL      0.423800000
      717 OW           20.100000000        40.880000000        20.510000000 O.3     239 SOL     -0.847600000
      718 HW1          19.870000000        39.910000000        20.450000000 H       239 SOL      0.423800000
      719 HW2          19.720000000        41.260000000        21.350000000 H       239 SOL      0.423800000
      720 OW           15.220000000        20.650000000        -3.010000000 O.3     240 SOL     -0.847600000
      721 HW1          15.260000000        21.340000000        -2.290000000 H       240 SOL      0.423800000
      722 HW2          15.060000000        21.090000000        -3.890000000 H       240 SOL      0.423800000
      723 OW            7.430000000        -6.510000000        13.640000000 O.3     241 SOL     -0.847600000
      724 HW1           6.850000000        -6.620000000        14.450000000 H       241 SOL      0.423800000
      725 HW2           6.990000000        -5.860000000        13.020000000 H       241 SOL      0.423800000
      726 OW           11.460000000        10.560000000         9.160000000 O.3     242 SOL     -0.847600000
      727 HW1          11.870000000        10.690000000         8.260000000 H       242 SOL      0.423800000
      728 HW2          11.240000000        11.450000000         9.560000000 H       242 SOL      0.423800000
      729 OW            0.840000000        12.710000000         4.860000000 O.3     243 SOL     -0.847600000
      730 HW1           0.430000000        13.520000000         5.270000000 H       243 SOL      0.423800000
      731 HW2           1.580000000        12.380000000         5.460000000 H       243 SOL      0.423800000
      732 OW           14.240000000        15.160000000        23.210000000 O.3     244 SOL     -0.847600000
      733 HW1          14.830000000        15.620000000        22.550000000 H       244 SOL      0.423800000
      734 HW2          14.640000000        15.240000000        24.130000000 H       244 SOL      0.423800000
      735 OW            7.570000000        33.220000000         0.480000000 O.3     245 SOL     -0.847600000
      736 HW1           7.150000000        33.730000000        -0.270000000 H       245 SOL      0.423800000
      737 HW2           7.030000000        33.330000000         1.310000000 H       245 SOL      0.423800000
      738 OW           -6.670000000        21.340000000         3.130000000 O.3     246 SOL     -0.847600000
      739 HW1          -7.240000000        20.530000000         3.220000000 H       246 SOL      0.423800000
      740 HW2          -7.230000000        22.120000000         2.840000000 H       246 SOL      0.423800000
      741 OW            9.990000000        -0.070000000        23.920000000 O.3     247 SOL     -0.847600000
      742 HW1           9.170000000        -0.080000000        23.340000000 H       247 SOL      0.423800000
      743 HW2          10.530000000         0.750000000        23.720000000 H       247 SOL      0.423800000
      744 OW           10.200000000         8.050000000         8.480000000 O.3     248 SOL     -0.847600000
      745 HW1           9.580000000         7.940000000         7.700000000 H       248 SOL      0.423800000
      746 HW2          10.540000000         8.980000000         8.500000000 H       248 SOL      0.423800000
      747 OW           15.330000000        21.930000000        19.050000000 O.3     249 SOL     -0.847600000
      748 HW1          15.750000000        22.600000000        18.440000000 H       249 SOL      0.423800000
      749 HW2          14.420000000        21.690000000        18.720000000 H       249 SOL      0.423800000
      750 OW            7.730000000        18.810000000        17.200000000 O.3     250 SOL     -0.847600000
      751 HW1           7.480000000        19.740000000        17.460000000 H       250 SOL      0.423800000
      752 HW2           8.720000000        18.680000000        17.330000000 H       250 SOL      0.423800000
      753 OW            2.100000000         0.840000000        13.640000000 O.3     251 SOL     -0.847600000
      754 HW1           1.590000000         0.770000000        12.780000000 H       251 SOL      0.423800000
      755 HW2           1.680000000         1.540000000        14.220000000 H       251 SOL      0.423800000
      756 OW           27.530000000        21.030000000        13.600000000 O.3     252 SOL     -0.847600000
      757 HW1          28.370000000        20.580000000        13.270000000 H       252 SOL      0.423800000
      758 HW2          26.780000000        20.380000000        13.590000000 H       252 SOL      0.423800000
      759 OW           16.900000000        23.640000000        17.420000000 O.3     253 SOL     -0.847600000
      760 HW1          17.020000000        24.590000000        17.710000000 H       253 SOL      0.423800000
      761 HW2          17.780000000        23.170000000        17.430000000 H       253 SOL      0.423800000
      762 OW            3.990000000        -5.430000000        28.920000000 O.3     254 SOL     -0.847600000
      763 HW1           3.890000000        -4.590000000        29.460000000 H       254 SOL      0.423800000
      764 HW2           4.920000000        -5.480000000        28.560000000 H       254 SOL      0.423800000
      765 OW            7.010000000        -1.110000000        15.870000000 O.3     255 SOL     -0.847600000
      766 HW1           6.120000000        -1.400000000        15.510000000 H       255 SOL      0.423800000
      767 HW2           6.940000000        -0.170000000        16.200000000 H       255 SOL      0.423800000
      768 OW            9.900000000        28.630000000        28.780000000 O.3     256 SOL     -0.847600000
      769 HW1          10.010000000        29.480000000        29.280000000 H       256 SOL      0.423800000
      770 HW2           9.660000000        27.890000000        29.410000000 H       256 SOL      0.423800000
      771 OW           16.160000000        18.300000000        -1.930000000 O.3     257 SOL     -0.847600000
      772 HW1          15.870000000        18.330000000        -0.980000000 H       257 SOL      0.423800000
      773 HW2          15.590000000        18.930000000        -2.470000000 H       257 SOL      0.423800000
      774 OW           15.070000000         8.050000000        13.790000000 O.3     258 SOL     -0.847600000
      775 HW1          15.940000000         7.860000000        13.330000000 H       258 SOL      0.423800000
      776 HW2          14.370000000         7.430000000        13.460000000 H       258 SOL      0.423800000
      777 OW           10.010000000        17.750000000         9.650000000 O.3     259 SOL     -0.847600000
      778 HW1           9.310000000        17.470000000        10.310000000 H       259 SOL      0.423800000
      779 HW2          10.910000000        17.680000000        10.060000000 H       259 SOL      0.423800000
      780 OW            0.230000000         8.250000000        -8.300000000 O.3     260 SOL     -0.847600000
      781 HW1           0.830000000         9.010000000        -8.050000000 H       260 SOL      0.423800000
      782 HW2           0.770000000         7.400000000        -8.340000000 H       260 SOL      0.423800000
      783 OW           16.960000000         1.990000000        11.150000000 O.3     261 SOL     -0.847600000
      784 HW1          17.880000000         2.370000000        11.070000000 H       261 SOL      0.423800000
      785 HW2          17.000000000         1.000000000        10.970000000 H       261 SOL      0.423800000
      786 OW           16.900000000         4.630000000        21.750000000 O.3     262 SOL     -0.847600000
      787 HW1          16.030000000         4.780000000        22.230000000 H       262 SOL      0.423800000
      788 HW2          17.170000000         3.680000000        21.840000000 H       262 SOL      0.423800000
      789 OW           15.580000000        -1.820000000         5.220000000 O.3     263 SOL     -0.847600000
      790 HW1          15.190000000        -2.730000000         5.400000000 H       263 SOL      0.423800000
      791 HW2          16.050000000        -1.500000000         6.040000000 H       263 SOL      0.423800000
      792 OW            6.700000000        -0.150000000         6.650000000 O.3     264 SOL     -0.847600000
      793 HW1           6.000000000         0.000000000         5.950000000 H       264 SOL      0.423800000
      794 HW2           6.970000000        -1.110000000         6.650000000 H       264 SOL      0.423800000
      795 OW           10.110000000        12.880000000        10.370000000 O.3     265 SOL     -0.847600000
      796 HW1          10.440000000        13.480000000        11.100000000 H       265 SOL      0.423800000
      797 HW2           9.390000000        13.350000000         9.850000000 H       265 SOL      0.423800000
      798 OW           -9.700000000        18.260000000        35.230000000 O.3     266 SOL     -0.847600000
      799 HW1          -8.920000000        17.690000000        34.970000000 H       266 SOL      0.423800000
      800 HW2          -9.440000000        19.220000000        35.140000000 H       266 SOL      0.423800000
      801 OW           -0.370000000        17.020000000         7.000000000 O.3     267 SOL     -0.847600000
      802 HW1          -0.260000000        17.060000000         7.990000000 H       267 SOL      0.423800000
      803 HW2           0.460000000        16.650000000         6.580000000 H       267 SOL      0.423800000
      804 OW           24.960000000         9.780000000         8.050000000 O.3     268 SOL     -0.847600000
      805 HW1          25.150000000         8.960000000         8.590000000 H       268 SOL      0.423800000
      806 HW2          23.970000000         9.940000000         8.020000000 H       268 SOL      0.423800000
      807 OW           12.050000000         5.320000000        11.120000000 O.3     269 SOL     -0.847600000
      808 HW1          11.780000000         6.280000000        11.140000000 H       269 SOL      0.423800000
      809 HW2          11.860000000         4.950000000        10.210000000 H       269 SOL      0.423800000
      810 OW           10.500000000        28.980000000        14.700000000 O.3     270 SOL     -0.847600000
      811 HW1          10.550000000        28.420000000        13.880000000 H       270 SOL      0.423800000
      812 HW2           9.540000000        29.130000000        14.950000000 H       270 SOL      0.423800000
      813 OW           -6.820000000         9.340000000        17.450000000 O.3     271 SOL     -0.847600000
      814 HW1          -7.160000000        10.050000000        16.830000000 H       271 SOL      0.423800000
      815 HW2          -6.960000000         8.440000000        17.040000000 H       271 SOL      0.423800000
      816 OW            5.340000000        19.890000000        21.200000000 O.3     272 SOL     -0.847600000
      817 HW1           4.600000000        20.570000000        21.270000000 H       272 SOL      0.423800000
      818 HW2           4.950000000        18.970000000        21.260000000 H       272 SOL      0.423800000
      819 OW           10.500000000        10.870000000        20.000000000 O.3     273 SOL     -0.847600000
      820 HW1          11.440000000        11.170000000        20.130000000 H       273 SOL      0.423800000
      821 HW2          10.260000000        10.930000000        19.030000000 H       273 SOL      0.423800000
      822 OW            4.100000000         8.090000000        23.220000000 O.3     274 SOL     -0.847600000
      823 HW1           4.440000000         8.810000000        23.820000000 H       274 SOL      0.423800000
      824 HW2           3.400000000         8.460000000        22.610000000 H       274 SOL      0.423800000
      825 OW            0.780000000         4.040000000        21.320000000 O.3     275 SOL     -0.847600000
      826 HW1           0.870000000         4.790000000        20.670000000 H       275 SOL      0.423800000
      827 HW2           0.680000000         4.410000000        22.240000000 H       275 SOL      0.423800000
      828 OW            6.500000000        17.830000000         6.180000000 O.3     276 SOL     -0.847600000
      829 HW1           7.270000000        17.330000000         6.570000000 H       276 SOL      0.423800000
      830 HW2           6.340000000        18.660000000         6.720000000 H       276 SOL      0.423800000
      831 OW            6.910000000        26.750000000        13.730000000 O.3     277 SOL     -0.847600000
      832 HW1           6.340000000        26.960000000        12.930000000 H       277 SOL      0.423800000
      833 HW2           7.840000000        26.550000000        13.430000000 H       277 SOL      0.423800000
      834 OW           18.110000000         3.270000000         7.300000000 O.3     278 SOL     -0.847600000
      835 HW1          17.270000000         2.970000000         7.760000000 H       278 SOL      0.423800000
      836 HW2          18.370000000         2.590000000         6.620000000 H       278 SOL      0.423800000
      837 OW           -8.850000000         3.640000000        12.950000000 O.3     279 SOL     -0.847600000
      838 HW1          -8.320000000         3.030000000        12.370000000 H       279 SOL      0.423800000
      839 HW2          -9.530000000         3.110000000        13.470000000 H       279 SOL      0.423800000
      840 OW           24.890000000        12.670000000        13.110000000 O.3     280 SOL     -0.847600000
      841 HW1          25.000000000        11.690000000        13.310000000 H       280 SOL      0.423800000
      842 HW2          24.400000000        13.110000000        13.860000000 H       280 SOL      0.423800000
      843 OW           16.860000000        16.440000000        34.510000000 O.3     281 SOL     -0.847600000
      844 HW1          16.200000000        15.690000000        34.570000000 H       281 SOL      0.423800000
      845 HW2          17.650000000        16.150000000        33.960000000 H       281 SOL      0.423800000
      846 OW           24.780000000        14.250000000        23.100000000 O.3     282 SOL     -0.847600000
      847 HW1          24.000000000        13.700000000        23.390000000 H       282 SOL      0.423800000
      848 HW2          25.230000000        14.650000000        23.900000000 H       282 SOL      0.423800000
      849 OW           -5.860000000        12.450000000         1.980000000 O.3     283 SOL     -0.847600000
      850 HW1          -6.250000000        12.470000000         2.900000000 H       283 SOL      0.423800000
      851 HW2          -6.030000000        11.560000000         1.560000000 H       283 SOL      0.423800000
      852 OW            3.950000000        25.720000000        25.510000000 O.3     284 SOL     -0.847600000
      853 HW1           3.630000000        26.330000000        26.230000000 H       284 SOL      0.423800000
      854 HW2           3.270000000        25.670000000        24.780000000 H       284 SOL      0.423800000
      855 OW           14.990000000        15.920000000         5.390000000 O.3     285 SOL     -0.847600000
      856 HW1          15.400000000        15.030000000         5.210000000 H       285 SOL      0.423800000
      857 HW2          14.200000000        15.810000000         5.980000000 H       285 SOL      0.423800000
      858 OW           10.050000000         6.800000000        -2.440000000 O.3     286 SOL     -0.847600000
      859 HW1          10.330000000         5.860000000        -2.660000000 H       286 SOL      0.423800000
      860 HW2           9.470000000         7.150000000        -3.170000000 H       286 SOL      0.423800000
      861 OW           13.550000000       -13.360000000        20.350000000 O.3     287 SOL     -0.847600000
      862 HW1          14.110000000       -13.450000000        19.520000000 H       287 SOL      0.423800000
      863 HW2          13.330000000       -14.270000000        20.700000000 H       287 SOL      0.423800000
      864 OW           12.330000000        17.540000000        10.910000000 O.3     288 SOL     -0.847600000
      865 HW1          12.280000000        18.250000000        11.620000000 H       288 SOL      0.423800000
      866 HW2          13.200000000        17.610000000        10.420000000 H       288 SOL      0.423800000
      867 OW            2.750000000        21.100000000        21.270000000 O.3     289 SOL     -0.847600000
      868 HW1           2.490000000        20.560000000        20.470000000 H       289 SOL      0.423800000
      869 HW2           2.560000000        22.070000000        21.090000000 H       289 SOL      0.423800000
      870 OW           16.400000000        -1.670000000         2.470000000 O.3     290 SOL     -0.847600000
      871 HW1          15.560000000        -1.930000000         1.980000000 H       290 SOL      0.423800000
      872 HW2          16.190000000        -1.500000000         3.430000000 H       290 SOL      0.423800000
      873 OW           13.950000000         2.400000000         6.660000000 O.3     291 SOL     -0.847600000
      874 HW1          13.940000000         1.640000000         6.010000000 H       291 SOL      0.423800000
      875 HW2          14.590000000         2.200000000         7.410000000 H       291 SOL      0.423800000
      876 OW           10.190000000         2.110000000         9.280000000 O.3     292 SOL     -0.847600000
      877 HW1          11.180000000         2.150000000         9.450000000 H       292 SOL      0.423800000
      878 HW2           9.800000000         3.020000000         9.340000000 H       292 SOL      0.423800000
      879 OW           11.080000000        25.470000000        -7.540000000 O.3     293 SOL     -0.847600000
      880 HW1          10.860000000        25.370000000        -8.510000000 H       293 SOL      0.423800000
      881 HW2          10.300000000        25.900000000        -7.070000000 H       293 SOL      0.423800000
      882 OW            7.920000000        11.840000000         7.160000000 O.3     294 SOL     -0.847600000
      883 HW1           8.630000000        11.260000000         6.750000000 H       294 SOL      0.423800000
      884 HW2           7.640000000        11.460000000         8.040000000 H       294 SOL      0.423800000
      885 OW            5.580000000         6.440000000         4.120000000 O.3     295 SOL     -0.847600000
      886 HW1           5.780000000         5.770000000         4.840000000 H       295 SOL      0.423800000
      887 HW2           4.680000000         6.260000000         3.730000000 H       295 SOL      0.423800000
      888 OW           -0.360000000        23.990000000        24.750000000 O.3     296 SOL     -0.847600000
      889 HW1           0.550000000        24.190000000        24.380000000 H       296 SOL      0.423800000
      890 HW2          -0.270000000        23.540000000        25.640000000 H       296 SOL      0.423800000
      891 OW           -2.030000000        14.630000000         6.440000000 O.3     297 SOL     -0.847600000
      892 HW1          -2.990000000        14.890000000         6.390000000 H       297 SOL      0.423800000
      893 HW2          -1.480000000        15.430000000         6.700000000 H       297 SOL      0.423800000
      894 OW            1.710000000        16.690000000        -1.900000000 O.3     298 SOL     -0.847600000
      895 HW1           0.840000000        16.390000000        -2.290000000 H       298 SOL      0.423800000
      896 HW2           1.820000000        16.290000000        -0.990000000 H       298 SOL      0.423800000
      897 OW           19.880000000        -2.340000000         7.600000000 O.3     299 SOL     -0.847600000
      898 HW1          19.170000000        -2.990000000         7.880000000 H       299 SOL      0.423800000
      899 HW2          20.060000000        -2.440000000         6.620000000 H       299 SOL      0.423800000
      900 OW           18.180000000         6.640000000         9.240000000 O.3     300 SOL     -0.847600000
      901 HW1          18.140000000         7.610000000         9.470000000 H       300 SOL      0.423800000
      902 HW2          18.730000000         6.150000000         9.920000000 H       300 SOL      0.423800000
      903 OW           25.150000000         7.790000000        12.220000000 O.3     301 SOL     -0.847600000
      904 HW1          25.640000000         7.530000000        11.390000000 H       301 SOL      0.423800000
      905 HW2          24.200000000         7.980000000        12.000000000 H       301 SOL      0.423800000
      906 OW           17.800000000         9.140000000        10.220000000 O.3     302 SOL     -0.847600000
      907 HW1          17.910000000         8.860000000        11.180000000 H       302 SOL      0.423800000
      908 HW2          17.380000000        10.040000000        10.180000000 H       302 SOL      0.423800000
      909 OW            4.590000000        14.740000000        21.200000000 O.3     303 SOL     -0.847600000
      910 HW1           5.160000000        14.580000000        22.000000000 H       303 SOL      0.423800000
      911 HW2           5.140000000        14.590000000        20.370000000 H       303 SOL      0.423800000
      912 OW           10.700000000        29.290000000        26.350000000 O.3     304 SOL     -0.847600000
      913 HW1           9.920000000        29.840000000        26.040000000 H       304 SOL      0.423800000
      914 HW2          10.580000000        29.040000000        27.310000000 H       304 SOL      0.423800000
      915 OW           12.640000000        23.140000000        17.960000000 O.3     305 SOL     -0.847600000
      916 HW1          12.440000000        22.690000000        18.830000000 H       305 SOL      0.423800000
      917 HW2          12.050000000        23.940000000        17.860000000 H       305 SOL      0.423800000
      918 OW           20.850000000        14.110000000        25.760000000 O.3     306 SOL     -0.847600000
      919 HW1          20.300000000        14.550000000        25.060000000 H       306 SOL      0.423800000
      920 HW2          20.290000000        13.440000000        26.250000000 H       306 SOL      0.423800000
      921 OW           18.200000000         5.950000000         6.490000000 O.3     307 SOL     -0.847600000
      922 HW1          18.300000000         4.960000000         6.640000000 H       307 SOL      0.423800000
      923 HW2          18.360000000         6.430000000         7.350000000 H       307 SOL      0.423800000
      924 OW           12.920000000        17.380000000         0.620000000 O.3     308 SOL     -0.847600000
      925 HW1          12.510000000        17.940000000         1.340000000 H       308 SOL      0.423800000
      926 HW2          12.280000000        17.320000000        -0.150000000 H       308 SOL      0.423800000
      927 OW           10.720000000         3.980000000        22.030000000 O.3     309 SOL     -0.847600000
      928 HW1          10.940000000         3.690000000        22.960000000 H       309 SOL      0.423800000
      929 HW2          10.040000000         3.360000000        21.640000000 H       309 SOL      0.423800000
      930 OW           16.120000000         7.370000000        21.950000000 O.3     310 SOL     -0.847600000
      931 HW1          16.810000000         8.000000000        21.590000000 H       310 SOL      0.423800000
      932 HW2          16.000000000         6.600000000        21.320000000 H       310 SOL      0.423800000
      933 OW            0.030000000         0.540000000         5.270000000 O.3     311 SOL     -0.847600000
      934 HW1           0.100000000         1.290000000         4.600000000 H       311 SOL      0.423800000
      935 HW2          -0.350000000        -0.270000000         4.820000000 H       311 SOL      0.423800000
      936 OW           20.410000000        25.640000000        12.290000000 O.3     312 SOL     -0.847600000
      937 HW1          21.370000000        25.620000000        12.560000000 H       312 SOL      0.423800000
      938 HW2          20.030000000        24.720000000        12.360000000 H       312 SOL      0.423800000
      939 OW           21.990000000        15.000000000        35.480000000 O.3     313 SOL     -0.847600000
      940 HW1          22.080000000        14.990000000        36.470000000 H       313 SOL      0.423800000
      941 HW2          22.900000000        15.050000000        35.060000000 H       313 SOL      0.423800000
      942 OW           15.130000000        16.760000000        18.900000000 O.3     314 SOL     -0.847600000
      943 HW1          15.830000000        17.470000000        18.920000000 H       314 SOL      0.423800000
      944 HW2          14.510000000        16.920000000        18.140000000 H       314 SOL      0.423800000
      945 OW           19.210000000        20.290000000         0.810000000 O.3     315 SOL     -0.847600000
      946 HW1          18.520000000        20.430000000         0.100000000 H       315 SOL      0.423800000
      947 HW2          18.880000000        20.700000000         1.670000000 H       315 SOL      0.423800000
      948 OW           29.460000000         2.850000000         8.950000000 O.3     316 SOL     -0.847600000
      949 HW1          29.660000000         3.100000000         9.890000000 H       316 SOL      0.423800000
      950 HW2          28.930000000         3.580000000         8.510000000 H       316 SOL      0.423800000
      951 OW           18.210000000         4.360000000        14.320000000 O.3     317 SOL     -0.847600000
      952 HW1          18.010000000         4.550000000        15.280000000 H       317 SOL      0.423800000
      953 HW2          17.350000000         4.360000000        13.800000000 H       317 SOL      0.423800000
      954 OW           24.770000000         8.160000000         5.650000000 O.3     318 SOL     -0.847600000
      955 HW1          24.940000000         8.810000000         4.910000000 H       318 SOL      0.423800000
      956 HW2          25.090000000         8.540000000         6.510000000 H       318 SOL      0.423800000
      957 OW           18.600000000        17.480000000        22.380000000 O.3     319 SOL     -0.847600000
      958 HW1          17.700000000        17.750000000        22.730000000 H       319 SOL      0.423800000
      959 HW2          19.070000000        18.290000000        22.020000000 H       319 SOL      0.423800000
      960 OW            8.870000000         0.090000000        10.480000000 O.3     320 SOL     -0.847600000
      961 HW1           9.470000000         0.830000000        10.180000000 H       320 SOL      0.423800000
      962 HW2           7.990000000         0.160000000        10.010000000 H       320 SOL      0.423800000
      963 OW           30.990000000         9.190000000         7.530000000 O.3     321 SOL     -0.847600000
      964 HW1          31.590000000         8.390000000         7.540000000 H       321 SOL      0.423800000
      965 HW2          30.600000000         9.310000000         6.620000000 H       321 SOL      0.423800000
      966 OW            3.790000000         0.670000000        16.660000000 O.3     322 SOL     -0.847600000
      967 HW1           3.660000000         0.080000000        15.860000000 H       322 SOL      0.423800000
      968 HW2           4.030000000         1.590000000        16.350000000 H       322 SOL      0.423800000
      969 OW           16.780000000        18.790000000        14.080000000 O.3     323 SOL     -0.847600000
      970 HW1          15.850000000        18.530000000        14.310000000 H       323 SOL      0.423800000
      971 HW2          17.140000000        18.160000000        13.390000000 H       323 SOL      0.423800000
      972 OW           17.620000000         1.950000000        22.590000000 O.3     324 SOL     -0.847600000
      973 HW1          17.360000000         1.270000000        21.900000000 H       324 SOL      0.423800000
      974 HW2          18.530000000         1.730000000        22.940000000 H       324 SOL      0.423800000
      975 OW            9.490000000        -2.030000000         4.540000000 O.3     325 SOL     -0.847600000
      976 HW1           8.650000000        -2.310000000         4.090000000 H       325 SOL      0.423800000
      977 HW2           9.500000000        -2.400000000         5.470000000 H       325 SOL      0.423800000
      978 OW           18.120000000        20.720000000        23.240000000 O.3     326 SOL     -0.847600000
      979 HW1          18.760000000        20.610000000        22.490000000 H       326 SOL      0.423800000
      980 HW2          17.280000000        20.210000000        23.050000000 H       326 SOL      0.423800000
      981 OW            4.320000000        11.170000000        21.590000000 O.3     327 SOL     -0.847600000
      982 HW1           4.710000000        11.570000000        20.760000000 H       327 SOL      0.423800000
      983 HW2           5.060000000        10.830000000        22.170000000 H       327 SOL      0.423800000
      984 OW           27.310000000         0.980000000         9.170000000 O.3     328 SOL     -0.847600000
      985 HW1          28.230000000         1.340000000         9.060000000 H       328 SOL      0.423800000
      986 HW2          27.140000000         0.280000000         8.470000000 H       328 SOL      0.423800000
      987 OW           24.460000000        23.080000000        10.550000000 O.3     329 SOL     -0.847600000
      988 HW1          24.010000000        22.530000000        11.240000000 H       329 SOL      0.423800000
      989 HW2          23.780000000        23.450000000         9.920000000 H       329 SOL      0.423800000
      990 OW            9.370000000        13.730000000         3.050000000 O.3     330 SOL     -0.847600000
      991 HW1           9.470000000        13.350000000         2.130000000 H       330 SOL      0.423800000
      992 HW2          10.070000000        13.340000000         3.650000000 H       330 SOL      0.423800000
      993 OW            9.920000000        17.510000000        14.330000000 O.3     331 SOL     -0.847600000
      994 HW1           9.680000000        16.870000000        15.060000000 H       331 SOL      0.423800000
      995 HW2           9.100000000        17.980000000        14.020000000 H       331 SOL      0.423800000
      996 OW            3.060000000        27.750000000         2.320000000 O.3     332 SOL     -0.847600000
      997 HW1           3.720000000        27.720000000         3.060000000 H       332 SOL      0.423800000
      998 HW2           2.820000000        28.700000000         2.110000000 H       332 SOL      0.423800000
      999 OW           -2.690000000        21.300000000        -2.630000000 O.3     333 SOL     -0.847600000
     1000 HW1          -1.910000000        20.700000000        -2.790000000 H       333 SOL      0.423800000
     1001 HW2          -3.340000000        20.850000000        -2.010000000 H       333 SOL      0.423800000
     1002 OW           11.110000000         8.120000000        16.750000000 O.3     334 SOL     -0.847600000
     1003 HW1          11.690000000         8.230000000        17.560000000 H       334 SOL      0.423800000
     1004 HW2          11.570000000         7.530000000        16.090000000 H       334 SOL      0.423800000
     1005 OW            0.220000000         3.080000000        24.940000000 O.3     335 SOL     -0.847600000
     1006 HW1          -0.720000000         3.400000000        24.830000000 H       335 SOL      0.423800000
     1007 HW2           0.850000000         3.810000000        24.680000000 H       335 SOL      0.423800000
     1008 OW            1.000000000         0.730000000        11.320000000 O.3     336 SOL     -0.847600000
     1009 HW1           0.590000000        -0.170000000        11.180000000 H       336 SOL      0.423800000
     1010 HW2           1.650000000         0.920000000        10.580000000 H       336 SOL      0.423800000
     1011 OW            1.120000000         6.060000000        19.630000000 O.3     337 SOL     -0.847600000
     1012 HW1           1.090000000         5.950000000        18.640000000 H       337 SOL      0.423800000
     1013 HW2           1.110000000         7.030000000        19.860000000 H       337 SOL      0.423800000
     1014 OW            9.470000000        24.120000000        15.050000000 O.3     338 SOL     -0.847600000
     1015 HW1           9.400000000        24.740000000        14.270000000 H       338 SOL      0.423800000
     1016 HW2           8.550000000        23.890000000        15.370000000 H       338 SOL      0.423800000
     1017 OW           15.920000000        13.250000000         0.550000000 O.3     339 SOL     -0.847600000
     1018 HW1          15.460000000        12.570000000        -0.020000000 H       339 SOL      0.423800000
     1019 HW2          16.070000000        12.880000000         1.470000000 H       339 SOL      0.423800000
     1020 OW            0.170000000         3.180000000        13.950000000 O.3     340 SOL     -0.847600000
     1021 HW1          -0.200000000         4.090000000        13.740000000 H       340 SOL      0.423800000
     1022 HW2          -0.520000000         2.650000000        14.450000000 H       340 SOL      0.423800000
     1023 OW           10.110000000         6.560000000         4.720000000 O.3     341 SOL     -0.847600000
     1024 HW1           9.500000000         6.440000000         3.940000000 H       341 SOL      0.423800000
     1025 HW2          10.800000000         7.250000000         4.510000000 H       341 SOL      0.423800000
     1026 OW            7.510000000        24.530000000        -1.500000000 O.3     342 SOL     -0.847600000
     1027 HW1           6.690000000        23.960000000        -1.440000000 H       342 SOL      0.423800000
     1028 HW2           7.260000000        25.430000000        -1.850000000 H       342 SOL      0.423800000
     1029 OW           26.450000000         0.950000000        23.860000000 O.3     343 SOL     -0.847600000
     1030 HW1          25.870000000         1.600000000        24.350000000 H       343 SOL      0.423800000
     1031 HW2          26.370000000         1.100000000        22.880000000 H       343 SOL      0.423800000
     1032 OW           12.570000000        13.270000000        -2.920000000 O.3     344 SOL     -0.847600000
     1033 HW1          12.910000000        12.550000000        -3.540000000 H       344 SOL      0.423800000
     1034 HW2          13.340000000        13.700000000        -2.450000000 H       344 SOL      0.423800000
     1035 OW           27.750000000        18.440000000        12.010000000 O.3     345 SOL     -0.847600000
     1036 HW1          28.100000000        18.060000000        12.860000000 H       345 SOL      0.423800000
     1037 HW2          27.300000000        17.720000000        11.480000000 H       345 SOL      0.423800000
     1038 OW           -1.450000000        14.980000000        26.470000000 O.3     346 SOL     -0.847600000
     1039 HW1          -0.650000000        14.370000000        26.490000000 H       346 SOL      0.423800000
     1040 HW2          -2.280000000        14.440000000        26.390000000 H       346 SOL      0.423800000
     1041 OW           11.580000000        27.630000000        12.510000000 O.3     347 SOL     -0.847600000
     1042 HW1          11.740000000        28.480000000        12.010000000 H       347 SOL      0.423800000
     1043 HW2          12.390000000        27.040000000        12.430000000 H       347 SOL      0.423800000
     1044 OW            4.870000000        -9.140000000         9.710000000 O.3     348 SOL     -0.847600000
     1045 HW1           4.930000000        -9.660000000        10.560000000 H       348 SOL      0.423800000
     1046 HW2           5.730000000        -8.640000000         9.570000000 H       348 SOL      0.423800000
     1047 OW            2.080000000        19.590000000         7.650000000 O.3     349 SOL     -0.847600000
     1048 HW1           2.360000000        20.460000000         7.240000000 H       349 SOL      0.423800000
     1049 HW2           2.810000000        18.920000000         7.550000000 H       349 SOL      0.423800000
     1050 OW            4.720000000        10.510000000        16.790000000 O.3     350 SOL     -0.847600000
     1051 HW1           4.950000000        11.430000000        16.490000000 H       350 SOL      0.423800000
     1052 HW2           5.410000000        10.180000000        17.440000000 H       350 SOL      0.423800000
     1053 OW           11.640000000        14.840000000        12.320000000 O.3     351 SOL     -0.847600000
     1054 HW1          11.230000000        14.980000000        13.220000000 H       351 SOL      0.423800000
     1055 HW2          11.860000000        15.720000000        11.900000000 H       351 SOL      0.423800000
     1056 OW           13.960000000        26.830000000        22.930000000 O.3     352 SOL     -0.847600000
     1057 HW1          14.630000000        26.460000000        23.570000000 H       352 SOL      0.423800000
     1058 HW2          13.770000000        26.150000000        22.220000000 H       352 SOL      0.423800000
     1059 OW            0.360000000        10.160000000         3.960000000 O.3     353 SOL     -0.847600000
     1060 HW1           0.450000000        11.030000000         4.450000000 H       353 SOL      0.423800000
     1061 HW2          -0.450000000        10.180000000         3.380000000 H       353 SOL      0.423800000
     1062 OW           -3.940000000        15.530000000        14.120000000 O.3     354 SOL     -0.847600000
     1063 HW1          -4.710000000        14.900000000        14.160000000 H       354 SOL      0.423800000
     1064 HW2          -4.270000000        16.440000000        13.850000000 H       354 SOL      0.423800000
     1065 OW            7.140000000        14.000000000        19.980000000 O.3     355 SOL     -0.847600000
     1066 HW1           7.910000000        13.760000000        19.380000000 H       355 SOL      0.423800000
     1067 HW2           7.500000000        14.350000000        20.840000000 H       355 SOL      0.423800000
     1068 OW           20.780000000         0.720000000        25.550000000 O.3     356 SOL     -0.847600000
     1069 HW1          20.990000000         0.130000000        24.760000000 H       356 SOL      0.423800000
     1070 HW2          19.980000000         0.360000000        26.020000000 H       356 SOL      0.423800000
     1071 OW           19.010000000         1.340000000        14.840000000 O.3     357 SOL     -0.847600000
     1072 HW1          18.790000000         2.290000000        15.070000000 H       357 SOL      0.423800000
     1073 HW2          19.140000000         1.260000000        13.850000000 H       357 SOL      0.423800000
     1074 OW            2.310000000        24.130000000         6.730000000 O.3     358 SOL     -0.847600000
     1075 HW1           1.680000000        24.840000000         6.420000000 H       358 SOL      0.423800000
     1076 HW2           1.900000000        23.240000000         6.580000000 H       358 SOL      0.423800000
     1077 OW            3.620000000         8.700000000         5.700000000 O.3     359 SOL     -0.847600000
     1078 HW1           3.410000000         8.500000000         4.740000000 H       359 SOL      0.423800000
     1079 HW2           3.210000000         9.580000000         5.950000000 H       359 SOL      0.423800000
     1080 OW            2.890000000        29.040000000        12.860000000 O.3     360 SOL     -0.847600000
     1081 HW1           3.410000000        29.660000000        13.450000000 H       360 SOL      0.423800000
     1082 HW2           2.180000000        28.590000000        13.400000000 H       360 SOL      0.423800000
     1083 OW            2.500000000        21.410000000         2.930000000 O.3     361 SOL     -0.847600000
     1084 HW1           3.190000000        22.100000000         3.130000000 H       361 SOL      0.423800000
     1085 HW2           2.940000000        20.550000000         2.660000000 H       361 SOL      0.423800000
     1086 OW           10.440000000        17.220000000        -0.920000000 O.3     362 SOL     -0.847600000
     1087 HW1           9.870000000        18.030000000        -1.090000000 H       362 SOL      0.423800000
     1088 HW2           9.890000000        16.500000000        -0.500000000 H       362 SOL      0.423800000
     1089 OW           10.950000000         7.030000000        14.070000000 O.3     363 SOL     -0.847600000
     1090 HW1          10.780000000         6.050000000        14.160000000 H       363 SOL      0.423800000
     1091 HW2          10.400000000         7.400000000        13.320000000 H       363 SOL      0.423800000
     1092 OW           16.730000000        11.150000000        19.950000000 O.3     364 SOL     -0.847600000
     1093 HW1          17.390000000        10.420000000        20.110000000 H       364 SOL      0.423800000
     1094 HW2          16.990000000        11.950000000        20.500000000 H       364 SOL      0.423800000
     1095 OW           11.910000000         7.810000000        23.880000000 O.3     365 SOL     -0.847600000
     1096 HW1          11.370000000         8.430000000        24.450000000 H       365 SOL      0.423800000
     1097 HW2          11.410000000         7.610000000        23.040000000 H       365 SOL      0.423800000
     1098 OW           -0.100000000        20.780000000        24.830000000 O.3     366 SOL     -0.847600000
     1099 HW1          -0.650000000        20.520000000        25.620000000 H       366 SOL      0.423800000
     1100 HW2          -0.470000000        20.340000000        24.010000000 H       366 SOL      0.423800000
     1101 OW           -4.970000000         0.940000000        -7.270000000 O.3     367 SOL     -0.847600000
     1102 HW1          -5.710000000         1.050000000        -6.600000000 H       367 SOL      0.423800000
     1103 HW2          -5.360000000         0.850000000        -8.180000000 H       367 SOL      0.423800000
     1104 OW           19.680000000        19.810000000        21.400000000 O.3     368 SOL     -0.847600000
     1105 HW1          20.350000000        19.710000000        22.130000000 H       368 SOL      0.423800000
     1106 HW2          20.140000000        19.770000000        20.510000000 H       368 SOL      0.423800000
     1107 OW            9.820000000        -2.430000000         1.020000000 O.3     369 SOL     -0.847600000
     1108 HW1          10.350000000        -2.910000000         0.320000000 H       369 SOL      0.423800000
     1109 HW2           9.940000000        -1.450000000         0.910000000 H       369 SOL      0.423800000
     1110 OW           11.560000000        19.410000000        26.370000000 O.3     370 SOL     -0.847600000
     1111 HW1          11.280000000        19.870000000        25.520000000 H       370 SOL      0.423800000
     1112 HW2          11.580000000        20.070000000        27.110000000 H       370 SOL      0.423800000
     1113 OW           -0.860000000         6.380000000        23.420000000 O.3     371 SOL     -0.847600000
     1114 HW1           0.070000000         6.560000000        23.750000000 H       371 SOL      0.423800000
     1115 HW2          -1.390000000         7.230000000        23.470000000 H       371 SOL      0.423800000
     1116 OW           14.200000000         1.710000000        13.710000000 O.3     372 SOL     -0.847600000
     1117 HW1          13.730000000         1.690000000        14.600000000 H       372 SOL      0.423800000
     1118 HW2          14.710000000         0.850000000        13.590000000 H       372 SOL      0.423800000
     1119 OW            4.890000000        -3.390000000         0.620000000 O.3     373 SOL     -0.847600000
     1120 HW1           5.460000000        -4.110000000         1.020000000 H       373 SOL      0.423800000
     1121 HW2           3.970000000        -3.740000000         0.460000000 H       373 SOL      0.423800000
     1122 OW            1.960000000        10.250000000        16.680000000 O.3     374 SOL     -0.847600000
     1123 HW1           2.890000000        10.390000000        16.350000000 H       374 SOL      0.423800000
     1124 HW2           1.730000000        10.950000000        17.350000000 H       374 SOL      0.423800000
     1125 OW           13.860000000         0.220000000         5.140000000 O.3     375 SOL     -0.847600000
     1126 HW1          14.570000000        -0.470000000         5.000000000 H       375 SOL      0.423800000
     1127 HW2          13.010000000        -0.230000000         5.420000000 H       375 SOL      0.423800000
     1128 OW           23.270000000        11.690000000        16.860000000 O.3     376 SOL     -0.847600000
     1129 HW1          22.400000000        11.350000000        17.220000000 H       376 SOL      0.423800000
     1130 HW2          23.100000000        12.270000000        16.060000000 H       376 SOL      0.423800000
     1131 OW            9.620000000        21.580000000        19.620000000 O.3     377 SOL     -0.847600000
     1132 HW1           8.720000000        21.770000000        20.010000000 H       377 SOL      0.423800000
     1133 HW2          10.310000000        22.140000000        20.090000000 H       377 SOL      0.423800000
     1134 OW           20.410000000         0.410000000        22.370000000 O.3     378 SOL     -0.847600000
     1135 HW1          21.230000000         0.740000000        22.820000000 H       378 SOL      0.423800000
     1136 HW2          20.560000000         0.360000000        21.380000000 H       378 SOL      0.423800000
     1137 OW           17.400000000         1.420000000        18.470000000 O.3     379 SOL     -0.847600000
     1138 HW1          17.010000000         1.030000000        19.300000000 H       379 SOL      0.423800000
     1139 HW2          17.090000000         2.360000000        18.360000000 H       379 SOL      0.423800000
     1140 OW           12.890000000         1.780000000         9.870000000 O.3     380 SOL     -0.847600000
     1141 HW1          13.800000000         2.070000000         9.580000000 H       380 SOL      0.423800000
     1142 HW2          12.840000000         0.780000000         9.890000000 H       380 SOL      0.423800000
     1143 OW           -6.500000000        12.300000000        23.750000000 O.3     381 SOL     -0.847600000
     1144 HW1          -6.170000000        12.970000000        24.420000000 H       381 SOL      0.423800000
     1145 HW2          -7.030000000        11.600000000        24.230000000 H       381 SOL      0.423800000
     1146 OW           -1.630000000        16.940000000        -3.510000000 O.3     382 SOL     -0.847600000
     1147 HW1          -2.410000000        17.520000000        -3.750000000 H       382 SOL      0.423800000
     1148 HW2          -1.590000000        16.160000000        -4.130000000 H       382 SOL      0.423800000
     1149 OW           16.960000000        11.590000000         9.610000000 O.3     383 SOL     -0.847600000
     1150 HW1          16.330000000        11.980000000         8.940000000 H       383 SOL      0.423800000
     1151 HW2          17.630000000        12.270000000         9.880000000 H       383 SOL      0.423800000
     1152 OW            4.230000000         8.210000000         9.190000000 O.3     384 SOL     -0.847600000
     1153 HW1           3.790000000         7.480000000         8.660000000 H       384 SOL      0.423800000
     1154 HW2           4.970000000         8.610000000         8.670000000 H       384 SOL      0.423800000
     1155 OW           -2.430000000        10.340000000        -0.400000000 O.3     385 SOL     -0.847600000
     1156 HW1          -3.240000000        10.170000000        -0.950000000 H       385 SOL      0.423800000
     1157 HW2          -1.790000000         9.570000000        -0.490000000 H       385 SOL      0.423800000
     1158 OW           11.550000000        28.390000000        31.570000000 O.3     386 SOL     -0.847600000
     1159 HW1          12.530000000        28.190000000        31.520000000 H       386 SOL      0.423800000
     1160 HW2          11.050000000        27.660000000        31.120000000 H       386 SOL      0.423800000
     1161 OW           18.780000000        13.540000000        14.090000000 O.3     387 SOL     -0.847600000
     1162 HW1          19.330000000        12.970000000        14.700000000 H       387 SOL      0.423800000
     1163 HW2          18.830000000        13.180000000        13.160000000 H       387 SOL      0.423800000
     1164 OW           29.880000000         2.840000000        15.530000000 O.3     388 SOL     -0.847600000
     1165 HW1          30.530000000         2.370000000        14.930000000 H       388 SOL      0.423800000
     1166 HW2          29.660000000         3.740000000        15.160000000 H       388 SOL      0.423800000
     1167 OW           20.190000000         3.780000000         3.220000000 O.3     389 SOL     -0.847600000
     1168 HW1          19.260000000         3.390000000         3.250000000 H       389 SOL      0.423800000
     1169 HW2          20.180000000         4.630000000         2.710000000 H       389 SOL      0.423800000
     1170 OW           22.910000000        20.620000000         9.530000000 O.3     390 SOL     -0.847600000
     1171 HW1          22.940000000        21.380000000         8.880000000 H       390 SOL      0.423800000
     1172 HW2          23.840000000        20.420000000         9.840000000 H       390 SOL      0.423800000
     1173 OW           19.220000000         5.940000000        22.460000000 O.3     391 SOL     -0.847600000
     1174 HW1          18.350000000         5.510000000        22.210000000 H       391 SOL      0.423800000
     1175 HW2          19.780000000         5.290000000        22.970000000 H       391 SOL      0.423800000
     1176 OW            9.930000000        10.430000000         5.230000000 O.3     392 SOL     -0.847600000
     1177 HW1          10.560000000         9.700000000         5.000000000 H       392 SOL      0.423800000
     1178 HW2          10.300000000        11.310000000         4.930000000 H       392 SOL      0.423800000
     1179 OW            5.390000000        27.710000000        24.320000000 O.3     393 SOL     -0.847600000
     1180 HW1           5.120000000        28.550000000        24.780000000 H       393 SOL      0.423800000
     1181 HW2           4.820000000        26.950000000        24.640000000 H       393 SOL      0.423800000
     1182 OW           17.620000000         7.660000000        12.780000000 O.3     394 SOL     -0.847600000
     1183 HW1          18.010000000         6.990000000        12.140000000 H       394 SOL      0.423800000
     1184 HW2          18.080000000         7.570000000        13.670000000 H       394 SOL      0.423800000
     1185 OW           15.650000000        18.270000000         0.760000000 O.3     395 SOL     -0.847600000
     1186 HW1          16.200000000        17.490000000         1.040000000 H       395 SOL      0.423800000
     1187 HW2          14.750000000        17.950000000         0.470000000 H       395 SOL      0.423800000
     1188 OW            4.570000000         9.120000000        14.280000000 O.3     396 SOL     -0.847600000
     1189 HW1           5.090000000         9.560000000        13.550000000 H       396 SOL      0.423800000
     1190 HW2           4.610000000         9.680000000        15.110000000 H       396 SOL      0.423800000
     1191 OW           22.440000000        -1.530000000         8.510000000 O.3     397 SOL     -0.847600000
     1192 HW1          22.290000000        -0.540000000         8.420000000 H       397 SOL      0.423800000
     1193 HW2          21.610000000        -2.020000000         8.230000000 H       397 SOL      0.423800000
     1194 OW            2.710000000        33.510000000         3.050000000 O.3     398 SOL     -0.847600000
     1195 HW1           1.910000000        34.020000000         3.380000000 H       398 SOL      0.423800000
     1196 HW2           3.200000000        34.060000000         2.390000000 H       398 SOL      0.423800000
     1197 OW           17.780000000        14.850000000        28.180000000 O.3     399 SOL     -0.847600000
     1198 HW1          17.970000000        14.950000000        27.210000000 H       399 SOL      0.423800000
     1199 HW2          17.970000000        15.720000000        28.650000000 H       399 SOL      0.423800000
     1200 OW           16.210000000        13.530000000         5.270000000 O.3     400 SOL     -0.847600000
     1201 HW1          16.920000000        13.460000000         5.970000000 H       400 SOL      0.423800000
     1202 HW2          16.610000000        13.880000000         4.420000000 H       400 SOL      0.423800000
     1203 OW            2.850000000         6.210000000         2.910000000 O.3     401 SOL     -0.847600000
     1204 HW1           2.850000000         7.190000000         3.100000000 H       401 SOL      0.423800000
     1205 HW2           2.290000000         5.730000000         3.590000000 H       401 SOL      0.423800000
     1206 OW           12.610000000         4.430000000        -8.200000000 O.3     402 SOL     -0.847600000
     1207 HW1          11.990000000         4.270000000        -8.980000000 H       402 SOL      0.423800000
     1208 HW2          12.970000000         3.560000000        -7.880000000 H       402 SOL      0.423800000
     1209 OW            9.750000000         0.500000000         3.540000000 O.3     403 SOL     -0.847600000
     1210 HW1           9.180000000         0.690000000         2.740000000 H       403 SOL      0.423800000
     1211 HW2           9.620000000        -0.460000000         3.820000000 H       403 SOL      0.423800000
     1212 OW           16.800000000        -8.950000000        25.740000000 O.3     404 SOL     -0.847600000
     1213 HW1          16.430000000        -9.870000000        25.690000000 H       404 SOL      0.423800000
     1214 HW2          17.710000000        -8.930000000        25.330000000 H       404 SOL      0.423800000
     1215 OW           22.310000000        20.630000000        29.310000000 O.3     405 SOL     -0.847600000
     1216 HW1          22.920000000        20.440000000        30.080000000 H       405 SOL      0.423800000
     1217 HW2          21.370000000        20.380000000        29.560000000 H       405 SOL      0.423800000
     1218 OW           14.270000000        17.680000000        13.300000000 O.3     406 SOL     -0.847600000
     1219 HW1          13.630000000        18.430000000        13.170000000 H       406 SOL      0.423800000
     1220 HW2          14.630000000        17.390000000        12.410000000 H       406 SOL      0.423800000
     1221 OW           19.330000000        12.960000000         6.810000000 O.3     407 SOL     -0.847600000
     1222 HW1          20.180000000        12.470000000         6.640000000 H       407 SOL      0.423800000
     1223 HW2          19.440000000        13.920000000         6.550000000 H       407 SOL      0.423800000
     1224 OW           21.070000000        -5.310000000        23.720000000 O.3     408 SOL     -0.847600000
     1225 HW1          21.510000000        -6.200000000        23.860000000 H       408 SOL      0.423800000
     1226 HW2          20.440000000        -5.120000000        24.470000000 H       408 SOL      0.423800000
     1227 OW           17.040000000        24.550000000        31.870000000 O.3     409 SOL     -0.847600000
     1228 HW1          17.710000000        24.720000000        32.590000000 H       409 SOL      0.423800000
     1229 HW2          17.270000000        25.110000000        31.070000000 H       409 SOL      0.423800000
     1230 OW           33.040000000         7.060000000         6.720000000 O.3     410 SOL     -0.847600000
     1231 HW1          32.770000000         6.110000000         6.840000000 H       410 SOL      0.423800000
     1232 HW2          33.600000000         7.150000000         5.900000000 H       410 SOL      0.423800000
     1233 OW           12.190000000         9.860000000        13.850000000 O.3     411 SOL     -0.847600000
     1234 HW1          12.320000000         8.880000000        13.980000000 H       411 SOL      0.423800000
     1235 HW2          12.340000000        10.090000000        12.880000000 H       411 SOL      0.423800000
     1236 OW           -2.130000000         7.370000000         2.260000000 O.3     412 SOL     -0.847600000
     1237 HW1          -1.940000000         8.340000000         2.390000000 H       412 SOL      0.423800000
     1238 HW2          -1.380000000         6.940000000         1.760000000 H       412 SOL      0.423800000
     1239 OW            9.470000000         1.070000000        12.940000000 O.3     413 SOL     -0.847600000
     1240 HW1          10.240000000         1.710000000        12.900000000 H       413 SOL      0.423800000
     1241 HW2           9.150000000         0.880000000        12.020000000 H       413 SOL      0.423800000
     1242 OW           13.320000000        18.000000000         7.780000000 O.3     414 SOL     -0.847600000
     1243 HW1          13.590000000        18.870000000         8.190000000 H       414 SOL      0.423800000
     1244 HW2          13.110000000        18.130000000         6.820000000 H       414 SOL      0.423800000
     1245 OW            4.850000000        -0.120000000        11.190000000 O.3     415 SOL     -0.847600000
     1246 HW1           5.400000000         0.420000000        10.550000000 H       415 SOL      0.423800000
     1247 HW2           5.440000000        -0.780000000        11.660000000 H       415 SOL      0.423800000
     1248 OW            5.250000000        17.410000000        18.710000000 O.3     416 SOL     -0.847600000
     1249 HW1           6.110000000        17.850000000        18.960000000 H       416 SOL      0.423800000
     1250 HW2           4.560000000        17.590000000        19.410000000 H       416 SOL      0.423800000
     1251 OW            8.970000000        15.650000000         0.750000000 O.3     417 SOL     -0.847600000
     1252 HW1           8.140000000        15.180000000         1.070000000 H       417 SOL      0.423800000
     1253 HW2           9.770000000        15.250000000         1.200000000 H       417 SOL      0.423800000
     1254 OW           20.800000000        25.480000000         4.840000000 O.3     418 SOL     -0.847600000
     1255 HW1          21.340000000        25.690000000         4.020000000 H       418 SOL      0.423800000
     1256 HW2          21.380000000        25.590000000         5.650000000 H       418 SOL      0.423800000
     1257 OW           11.590000000        15.970000000         4.270000000 O.3     419 SOL     -0.847600000
     1258 HW1          10.800000000        16.580000000         4.230000000 H       419 SOL      0.423800000
     1259 HW2          11.560000000        15.440000000         5.110000000 H       419 SOL      0.423800000
     1260 OW           13.520000000        12.860000000        11.730000000 O.3     420 SOL     -0.847600000
     1261 HW1          13.340000000        11.890000000        11.570000000 H       420 SOL      0.423800000
     1262 HW2          12.700000000        13.290000000        12.110000000 H       420 SOL      0.423800000
     1263 OW           18.850000000        -0.970000000        23.970000000 O.3     421 SOL     -0.847600000
     1264 HW1          19.000000000        -1.960000000        24.040000000 H       421 SOL      0.423800000
     1265 HW2          19.470000000        -0.590000000        23.290000000 H       421 SOL      0.423800000
     1266 OW           22.250000000        26.700000000         2.720000000 O.3     422 SOL     -0.847600000
     1267 HW1          22.060000000        26.310000000         1.820000000 H       422 SOL      0.423800000
     1268 HW2          21.500000000        27.310000000         2.990000000 H       422 SOL      0.423800000
     1269 OW            7.880000000        20.000000000         5.020000000 O.3     423 SOL     -0.847600000
     1270 HW1           7.660000000        20.140000000         4.060000000 H       423 SOL      0.423800000
     1271 HW2           7.330000000        19.260000000         5.390000000 H       423 SOL      0.423800000
     1272 OW           19.370000000        22.110000000        17.470000000 O.3     424 SOL     -0.847600000
     1273 HW1          19.950000000        22.430000000        18.220000000 H       424 SOL      0.423800000
     1274 HW2          19.570000000        21.150000000        17.280000000 H       424 SOL      0.423800000
     1275 OW           22.550000000        12.510000000        21.040000000 O.3     425 SOL     -0.847600000
     1276 HW1          21.710000000        11.980000000        20.960000000 H       425 SOL      0.423800000
     1277 HW2          22.730000000        12.700000000        22.000000000 H       425 SOL      0.423800000
     1278 OW           22.450000000        18.950000000        17.030000000 O.3     426 SOL     -0.847600000
     1279 HW1          22.060000000        19.430000000        16.250000000 H       426 SOL      0.423800000
     1280 HW2          22.500000000        17.970000000        16.830000000 H       426 SOL      0.423800000
     1281 OW           26.660000000        18.140000000         5.100000000 O.3     427 SOL     -0.847600000
     1282 HW1          27.600000000        18.430000000         4.930000000 H       427 SOL      0.423800000
     1283 HW2          26.300000000        18.630000000         5.900000000 H       427 SOL      0.423800000
     1284 OW           14.630000000         5.850000000        12.040000000 O.3     428 SOL     -0.847600000
     1285 HW1          13.690000000         5.550000000        11.880000000 H       428 SOL      0.423800000
     1286 HW2          15.210000000         5.060000000        12.220000000 H       428 SOL      0.423800000
     1287 OW           -2.420000000        17.050000000        24.090000000 O.3     429 SOL     -0.847600000
     1288 HW1          -2.250000000        16.770000000        23.150000000 H       429 SOL      0.423800000
     1289 HW2          -1.630000000        16.820000000        24.660000000 H       429 SOL      0.423800000
     1290 OW           14.120000000        16.800000000        16.380000000 O.3     430 SOL     -0.847600000
     1291 HW1          14.090000000        15.810000000        16.470000000 H       430 SOL      0.423800000
     1292 HW2          14.490000000        17.040000000        15.480000000 H       430 SOL      0.423800000
     1293 OW            4.410000000        25.230000000         5.160000000 O.3     431 SOL     -0.847600000
     1294 HW1           4.590000000        26.200000000         5.020000000 H       431 SOL      0.423800000
     1295 HW2           3.600000000        25.120000000         5.740000000 H       431 SOL      0.423800000
     1296 OW            0.430000000        10.230000000        13.770000000 O.3     432 SOL     -0.847600000
     1297 HW1           0.440000000         9.330000000        13.340000000 H       432 SOL      0.423800000
     1298 HW2           0.410000000        10.120000000        14.770000000 H       432 SOL      0.423800000
     1299 OW            9.490000000        17.630000000         4.900000000 O.3     433 SOL     -0.847600000
     1300 HW1           9.120000000        18.560000000         4.900000000 H       433 SOL      0.423800000
     1301 HW2           9.410000000        17.250000000         5.820000000 H       433 SOL      0.423800000
     1302 OW           24.110000000        20.900000000        17.860000000 O.3     434 SOL     -0.847600000
     1303 HW1          24.960000000        20.410000000        18.050000000 H       434 SOL      0.423800000
     1304 HW2          23.390000000        20.250000000        17.630000000 H       434 SOL      0.423800000
     1305 OW           27.810000000        14.390000000        32.400000000 O.3     435 SOL     -0.847600000
     1306 HW1          27.330000000        13.640000000        32.860000000 H       435 SOL      0.423800000
     1307 HW2          28.250000000        14.970000000        33.090000000 H       435 SOL      0.423800000
     1308 OW           22.600000000         8.900000000        12.050000000 O.3     436 SOL     -0.847600000
     1309 HW1          22.130000000         8.880000000        12.930000000 H       436 SOL      0.423800000
     1310 HW2          21.970000000         8.600000000        11.330000000 H       436 SOL      0.423800000
     1311 OW            4.440000000        15.230000000        17.280000000 O.3     437 SOL     -0.847600000
     1312 HW1           3.470000000        15.340000000        17.060000000 H       437 SOL      0.423800000
     1313 HW2           4.720000000        15.960000000        17.910000000 H       437 SOL      0.423800000
     1314 OW            8.160000000        16.730000000        11.230000000 O.3     438 SOL     -0.847600000
     1315 HW1           8.210000000        17.080000000        12.160000000 H       438 SOL      0.423800000
     1316 HW2           7.820000000        15.790000000        11.240000000 H       438 SOL      0.423800000
     1317 OW           20.230000000        15.460000000         5.920000000 O.3     439 SOL     -0.847600000
     1318 HW1          20.700000000        15.840000000         5.130000000 H       439 SOL      0.423800000
     1319 HW2          19.650000000        16.160000000         6.340000000 H       439 SOL      0.423800000
     1320 OW           11.860000000        18.270000000        16.580000000 O.3     440 SOL     -0.847600000
     1321 HW1          12.690000000        17.720000000        16.520000000 H       440 SOL      0.423800000
     1322 HW2          11.560000000        18.540000000        15.660000000 H       440 SOL      0.423800000
     1323 OW           14.160000000        20.540000000         8.510000000 O.3     441 SOL     -0.847600000
     1324 HW1          14.740000000        21.350000000         8.450000000 H       441 SOL      0.423800000
     1325 HW2          13.540000000        20.630000000         9.290000000 H       441 SOL      0.423800000
     1326 OW            6.210000000        10.400000000        23.420000000 O.3     442 SOL     -0.847600000
     1327 HW1           7.040000000        10.100000000        22.960000000 H       442 SOL      0.423800000
     1328 HW2           6.430000000        11.120000000        24.070000000 H       442 SOL      0.423800000
     1329 OW           -0.880000000        23.200000000        28.940000000 O.3     443 SOL     -0.847600000
     1330 HW1          -0.590000000        22.990000000        28.010000000 H       443 SOL      0.423800000
     1331 HW2          -1.690000000        22.650000000        29.160000000 H       443 SOL      0.423800000
     1332 OW            9.780000000        16.480000000        19.950000000 O.3     444 SOL     -0.847600000
     1333 HW1           9.590000000        17.410000000        19.640000000 H       444 SOL      0.423800000
     1334 HW2          10.690000000        16.450000000        20.370000000 H       444 SOL      0.423800000
     1335 OW           28.920000000        11.860000000        10.720000000 O.3     445 SOL     -0.847600000
     1336 HW1          29.430000000        11.090000000        11.100000000 H       445 SOL      0.423800000
     1337 HW2          29.210000000        12.710000000        11.160000000 H       445 SOL      0.423800000
     1338 OW            2.140000000         9.460000000        21.610000000 O.3     446 SOL     -0.847600000
     1339 HW1           1.770000000         9.260000000        20.700000000 H       446 SOL      0.423800000
     1340 HW2           2.730000000        10.260000000        21.550000000 H       446 SOL      0.423800000
     1341 OW           18.500000000         4.290000000        41.790000000 O.3     447 SOL     -0.847600000
     1342 HW1          19.410000000         3.940000000        41.980000000 H       447 SOL      0.423800000
     1343 HW2          17.940000000         4.210000000        42.620000000 H       447 SOL      0.423800000
     1344 OW           12.400000000        21.700000000        20.350000000 O.3     448 SOL     -0.847600000
     1345 HW1          12.630000000        22.230000000        21.170000000 H       448 SOL      0.423800000
     1346 HW2          12.010000000        20.820000000        20.620000000 H       448 SOL      0.423800000
     1347 OW            2.480000000         7.310000000        14.210000000 O.3     449 SOL     -0.847600000
     1348 HW1           1.540000000         7.290000000        13.870000000 H       449 SOL      0.423800000
     1349 HW2           2.890000000         8.190000000        13.980000000 H       449 SOL      0.423800000
     1350 OW           12.360000000        11.520000000        16.040000000 O.3     450 SOL     -0.847600000
     1351 HW1          12.630000000        10.810000000        16.690000000 H       450 SOL      0.423800000
     1352 HW2          12.210000000        11.110000000        15.140000000 H       450 SOL      0.423800000
     1353 OW           16.980000000        15.300000000        17.230000000 O.3     451 SOL     -0.847600000
     1354 HW1          16.190000000        15.220000000        17.840000000 H       451 SOL      0.423800000
     1355 HW2          16.660000000        15.520000000        16.300000000 H       451 SOL      0.423800000
     1356 OW            9.810000000         7.860000000        11.340000000 O.3     452 SOL     -0.847600000
     1357 HW1           9.770000000         7.680000000        10.360000000 H       452 SOL      0.423800000
     1358 HW2           9.540000000         8.810000000        11.520000000 H       452 SOL      0.423800000
     1359 OW           21.310000000        22.280000000        19.610000000 O.3     453 SOL     -0.847600000
     1360 HW1          21.740000000        21.980000000        20.460000000 H       453 SOL      0.423800000
     1361 HW2          21.950000000        22.840000000        19.090000000 H       453 SOL      0.423800000
     1362 OW            8.140000000         6.120000000        27.820000000 O.3     454 SOL     -0.847600000
     1363 HW1           8.020000000         5.220000000        27.390000000 H       454 SOL      0.423800000
     1364 HW2           7.240000000         6.530000000        27.980000000 H       454 SOL      0.423800000
     1365 OW            1.110000000        -3.120000000         5.560000000 O.3     455 SOL     -0.847600000
     1366 HW1           0.500000000        -2.440000000         5.160000000 H       455 SOL      0.423800000
     1367 HW2           1.760000000        -3.440000000         4.860000000 H       455 SOL      0.423800000
     1368 OW           15.800000000         6.270000000        29.830000000 O.3     456 SOL     -0.847600000
     1369 HW1          15.270000000         5.440000000        29.610000000 H       456 SOL      0.423800000
     1370 HW2          16.720000000         6.000000000        30.110000000 H       456 SOL      0.423800000
     1371 OW           15.880000000        10.040000000        15.330000000 O.3     457 SOL     -0.847600000
     1372 HW1          15.760000000         9.200000000        14.800000000 H       457 SOL      0.423800000
     1373 HW2          15.310000000        10.760000000        14.930000000 H       457 SOL      0.423800000
     1374 OW           14.980000000        12.810000000         7.810000000 O.3     458 SOL     -0.847600000
     1375 HW1          15.400000000        13.200000000         6.980000000 H       458 SOL      0.423800000
     1376 HW2          14.400000000        12.040000000         7.550000000 H       458 SOL      0.423800000
     1377 OW           17.670000000        16.990000000        12.360000000 O.3     459 SOL     -0.847600000
     1378 HW1          17.550000000        16.860000000        11.380000000 H       459 SOL      0.423800000
     1379 HW2          18.640000000        17.120000000        12.570000000 H       459 SOL      0.423800000
     1380 OW            7.630000000        10.790000000        28.270000000 O.3     460 SOL     -0.847600000
     1381 HW1           7.040000000        11.490000000        28.680000000 H       460 SOL      0.423800000
     1382 HW2           8.390000000        10.590000000        28.890000000 H       460 SOL      0.423800000
     1383 OW            6.250000000        19.040000000        27.170000000 O.3     461 SOL     -0.847600000
     1384 HW1           7.190000000        18.770000000        26.960000000 H       461 SOL      0.423800000
     1385 HW2           5.620000000        18.470000000        26.650000000 H       461 SOL      0.423800000
     1386 OW           -2.300000000        10.970000000         8.270000000 O.3     462 SOL     -0.847600000
     1387 HW1          -2.370000000        11.490000000         9.120000000 H       462 SOL      0.423800000
     1388 HW2          -2.600000000        11.530000000         7.500000000 H       462 SOL      0.423800000
     1389 OW           17.970000000         8.710000000        20.470000000 O.3     463 SOL     -0.847600000
     1390 HW1          18.050000000         8.590000000        19.480000000 H       463 SOL      0.423800000
     1391 HW2          18.670000000         8.140000000        20.920000000 H       463 SOL      0.423800000
     1392 OW           28.640000000        18.200000000         0.460000000 O.3     464 SOL     -0.847600000
     1393 HW1          27.870000000        17.690000000         0.860000000 H       464 SOL      0.423800000
     1394 HW2          28.300000000        19.030000000         0.020000000 H       464 SOL      0.423800000
     1395 OW           -3.330000000        16.450000000         3.500000000 O.3     465 SOL     -0.847600000
     1396 HW1          -3.340000000        17.350000000         3.060000000 H       465 SOL      0.423800000
     1397 HW2          -2.720000000        15.840000000         3.000000000 H       465 SOL      0.423800000
     1398 OW           11.120000000        -0.270000000         7.500000000 O.3     466 SOL     -0.847600000
     1399 HW1          11.760000000        -0.460000000         8.240000000 H       466 SOL      0.423800000
     1400 HW2          10.570000000         0.540000000         7.720000000 H       466 SOL      0.423800000
     1401 OW            9.570000000        20.490000000         8.940000000 O.3     467 SOL     -0.847600000
     1402 HW1          10.180000000        20.700000000         8.180000000 H       467 SOL      0.423800000
     1403 HW2           9.750000000        19.560000000         9.260000000 H       467 SOL      0.423800000
     1404 OW           22.640000000         6.450000000        20.090000000 O.3     468 SOL     -0.847600000
     1405 HW1          23.110000000         7.120000000        19.530000000 H       468 SOL      0.423800000
     1406 HW2          22.290000000         6.890000000        20.920000000 H       468 SOL      0.423800000
     1407 OW            7.150000000        21.260000000        17.450000000 O.3     469 SOL     -0.847600000
     1408 HW1           7.290000000        21.550000000        18.400000000 H       469 SOL      0.423800000
     1409 HW2           7.350000000        22.030000000        16.840000000 H       469 SOL      0.423800000
     1410 OW           14.540000000         8.690000000        23.880000000 O.3     470 SOL     -0.847600000
     1411 HW1          13.640000000         8.260000000        23.930000000 H       470 SOL      0.423800000
     1412 HW2          15.150000000         8.120000000        23.340000000 H       470 SOL      0.423800000
     1413 OW           20.150000000        12.400000000        11.970000000 O.3     471 SOL     -0.847600000
     1414 HW1          21.080000000        12.050000000        11.900000000 H       471 SOL      0.423800000
     1415 HW2          19.890000000        12.820000000        11.100000000 H       471 SOL      0.423800000
     1416 OW            7.700000000        15.470000000        29.110000000 O.3     472 SOL     -0.847600000
     1417 HW1           8.260000000        16.290000000        29.070000000 H       472 SOL      0.423800000
     1418 HW2           8.200000000        14.690000000        28.750000000 H       472 SOL      0.423800000
     1419 OW            6.130000000        17.100000000        15.740000000 O.3     473 SOL     -0.847600000
     1420 HW1           6.810000000        17.490000000        16.360000000 H       473 SOL      0.423800000
     1421 HW2           5.610000000        16.390000000        16.230000000 H       473 SOL      0.423800000
     1422 OW           20.590000000        10.190000000        17.930000000 O.3     474 SOL     -0.847600000
     1423 HW1          21.160000000         9.450000000        17.560000000 H       474 SOL      0.423800000
     1424 HW2          19.630000000         9.920000000        17.890000000 H       474 SOL      0.423800000
     1425 OW            9.260000000        11.360000000        -0.890000000 O.3     475 SOL     -0.847600000
     1426 HW1           9.790000000        12.160000000        -1.170000000 H       475 SOL      0.423800000
     1427 HW2           9.100000000        10.780000000        -1.690000000 H       475 SOL      0.423800000
     1428 OW            2.770000000        13.770000000        13.920000000 O.3     476 SOL     -0.847600000
     1429 HW1           1.930000000        13.250000000        13.740000000 H       476 SOL      0.423800000
     1430 HW2           2.540000000        14.650000000        14.330000000 H       476 SOL      0.423800000
     1431 OW            3.520000000        -1.240000000        14.700000000 O.3     477 SOL     -0.847600000
     1432 HW1           3.320000000        -2.140000000        14.310000000 H       477 SOL      0.423800000
     1433 HW2           2.970000000        -0.540000000        14.240000000 H       477 SOL      0.423800000
     1434 OW            9.090000000         6.130000000         0.230000000 O.3     478 SOL     -0.847600000
     1435 HW1           8.450000000         6.880000000         0.420000000 H       478 SOL      0.423800000
     1436 HW2           9.350000000         6.160000000        -0.740000000 H       478 SOL      0.423800000
     1437 OW           22.620000000         4.640000000        11.460000000 O.3     479 SOL     -0.847600000
     1438 HW1          22.300000000         5.290000000        10.770000000 H       479 SOL      0.423800000
     1439 HW2          22.980000000         5.140000000        12.250000000 H       479 SOL      0.423800000
     1440 OW           10.780000000        22.250000000        13.700000000 O.3     480 SOL     -0.847600000
     1441 HW1          10.260000000        22.910000000        14.230000000 H       480 SOL      0.423800000
     1442 HW2          10.600000000        22.370000000        12.730000000 H       480 SOL      0.423800000
     1443 OW            6.000000000        12.710000000         4.490000000 O.3     481 SOL     -0.847600000
     1444 HW1           5.230000000        13.240000000         4.140000000 H       481 SOL      0.423800000
     1445 HW2           5.910000000        12.590000000         5.480000000 H       481 SOL      0.423800000
     1446 OW           12.920000000         6.210000000        26.140000000 O.3     482 SOL     -0.847600000
     1447 HW1          12.480000000         6.780000000        25.440000000 H       482 SOL      0.423800000
     1448 HW2          12.350000000         5.400000000        26.310000000 H       482 SOL      0.423800000
     1449 OW           14.390000000         3.840000000         4.230000000 O.3     483 SOL     -0.847600000
     1450 HW1          14.040000000         3.270000000         4.980000000 H       483 SOL      0.423800000
     1451 HW2          14.400000000         3.320000000         3.380000000 H       483 SOL      0.423800000
     1452 OW            8.800000000         2.110000000         5.660000000 O.3     484 SOL     -0.847600000
     1453 HW1           8.070000000         1.680000000         6.200000000 H       484 SOL      0.423800000
     1454 HW2           9.110000000         1.480000000         4.950000000 H       484 SOL      0.423800000
     1455 OW            1.530000000         1.340000000        -6.370000000 O.3     485 SOL     -0.847600000
     1456 HW1           2.110000000         1.080000000        -7.140000000 H       485 SOL      0.423800000
     1457 HW2           1.000000000         2.150000000        -6.610000000 H       485 SOL      0.423800000
     1458 OW           13.710000000        12.790000000         3.320000000 O.3     486 SOL     -0.847600000
     1459 HW1          13.870000000        13.760000000         3.100000000 H       486 SOL      0.423800000
     1460 HW2          14.540000000        12.270000000         3.140000000 H       486 SOL      0.423800000
     1461 OW           11.510000000         8.700000000         3.570000000 O.3     487 SOL     -0.847600000
     1462 HW1          12.460000000         8.950000000         3.750000000 H       487 SOL      0.423800000
     1463 HW2          11.220000000         9.120000000         2.710000000 H       487 SOL      0.423800000
     1464 OW           16.500000000        20.740000000        10.900000000 O.3     488 SOL     -0.847600000
     1465 HW1          15.830000000        21.230000000        11.450000000 H       488 SOL      0.423800000
     1466 HW2          17.360000000        20.680000000        11.410000000 H       488 SOL      0.423800000
     1467 OW           25.690000000        18.040000000        16.700000000 O.3     489 SOL     -0.847600000
     1468 HW1          25.330000000        18.960000000        16.580000000 H       489 SOL      0.423800000
     1469 HW2          25.660000000        17.800000000        17.670000000 H       489 SOL      0.423800000
     1470 OW            7.030000000        10.130000000        18.050000000 O.3     490 SOL     -0.847600000
     1471 HW1           7.110000000         9.250000000        18.520000000 H       490 SOL      0.423800000
     1472 HW2           7.910000000        10.610000000        18.100000000 H       490 SOL      0.423800000
     1473 OW           30.490000000         4.820000000         6.360000000 O.3     491 SOL     -0.847600000
     1474 HW1          30.130000000         5.650000000         6.800000000 H       491 SOL      0.423800000
     1475 HW2          31.250000000         4.460000000         6.900000000 H       491 SOL      0.423800000
     1476 OW           31.350000000         0.880000000         8.970000000 O.3     492 SOL     -0.847600000
     1477 HW1          30.880000000         1.760000000         9.050000000 H       492 SOL      0.423800000
     1478 HW2          31.490000000         0.670000000         8.000000000 H       492 SOL      0.423800000
     1479 OW           29.700000000        16.320000000         4.060000000 O.3     493 SOL     -0.847600000
     1480 HW1          30.550000000        15.810000000         3.910000000 H       493 SOL      0.423800000
     1481 HW2          29.850000000        17.020000000         4.760000000 H       493 SOL      0.423800000
     1482 OW           16.200000000        23.320000000        23.820000000 O.3     494 SOL     -0.847600000
     1483 HW1          17.170000000        23.360000000        23.570000000 H       494 SOL      0.423800000
     1484 HW2          15.980000000        22.400000000        24.150000000 H       494 SOL      0.423800000
     1485 OW            6.850000000        27.110000000        -2.350000000 O.3     495 SOL     -0.847600000
     1486 HW1           6.380000000        27.410000000        -1.530000000 H       495 SOL      0.423800000
     1487 HW2           6.200000000        27.040000000        -3.110000000 H       495 SOL      0.423800000
     1488 OW          -14.360000000        13.690000000        23.320000000 O.3     496 SOL     -0.847600000
     1489 HW1         -14.070000000        13.520000000        24.260000000 H       496 SOL      0.423800000
     1490 HW2         -13.580000000        13.580000000        22.700000000 H       496 SOL      0.423800000
     1491 OW           15.430000000         7.990000000         7.450000000 O.3     497 SOL     -0.847600000
     1492 HW1          15.410000000         7.500000000         8.320000000 H       497 SOL      0.423800000
     1493 HW2          15.420000000         7.320000000         6.700000000 H       497 SOL      0.423800000
     1494 OW          -13.250000000        25.290000000        20.270000000 O.3     498 SOL     -0.847600000
     1495 HW1         -14.060000000        25.600000000        20.780000000 H       498 SOL      0.423800000
     1496 HW2         -13.260000000        25.690000000        19.360000000 H       498 SOL      0.423800000
     1497 OW           14.960000000        11.680000000        -1.560000000 O.3     499 SOL     -0.847600000
     1498 HW1          14.760000000        10.760000000        -1.220000000 H       499 SOL      0.423800000
     1499 HW2          14.660000000        11.750000000        -2.510000000 H       499 SOL      0.423800000
     1500 OW           26.110000000         7.710000000         9.540000000 O.3     500 SOL     -0.847600000
     1501 HW1          27.040000000         8.090000000         9.500000000 H       500 SOL      0.423800000
     1502 HW2          26.150000000         6.770000000         9.850000000 H       500 SOL      0.423800000
     1503 OW           26.580000000        19.760000000        19.250000000 O.3     501 SOL     -0.847600000
     1504 HW1          26.930000000        20.010000000        18.350000000 H       501 SOL      0.423800000
     1505 HW2          26.570000000        18.760000000        19.340000000 H       501 SOL      0.423800000
@<TRIPOS>BOND
        1         1         2 1     
        2         1         3 1     
        3         1         4 1     
        4         1         5 1     
        5         6         7 1     
        6         6         8 1     
        7         9        10 1     
        8         9        11 1     
        9        12        13 1     
       10        12        14 1     
       11        15        16 1     
       12        15        17 1     
       13        18        19 1     
       14        18        20 1     
       15        21        22 1     
       16        21        23 1     
       17        24        25 1     
       18        24        26 1     
       19        27        28 1     
       20        27        29 1     
       21        30        31 1     
       22        30        32 1     
       23        33        34 1     
       24        33        35 1     
       25        36        37 1     
       26        36        38 1     
       27        39        40 1     
       28        39        41 1     
       29        42        43 1     
       30        42        44 1     
       31        45        46 1     
       32        45        47 1     
       33        48        49 1     
       34        48        50 1     
       35        51        52 1     
       36        51        53 1     
       37        54        55 1     
       38        54        56 1     
       39        57        58 1     
       40        57        59 1     
       41        60        61 1     
       42        60        62 1     
       43        63        64 1     
       44        63        65 1     
       45        66        67 1     
       46        66        68 1     
       47        69        70 1     
       48        69        71 1     
       49        72        73 1     
       50        72        74 1     
       51        75        76 1     
       52        75        77 1     
       53        78        79 1     
       54        78        80 1     
       55        81        82 1     
       56        81        83 1     
       57        84        85 1     
       58        84        86 1     
       59        87        88 1     
       60        87        89 1     
       61        90        91 1     
       62        90        92 1     
       63        93        94 1     
       64        93        95 1     
       65        96        97 1     
       66        96        98 1     
       67        99       100 1     
       68        99       101 1     
       69       102       103 1     
       70       102       104 1     
       71       105       106 1     
       72       105       107 1     
       73       108       109 1     
       74       108       110 1     
       75       111       112 1     
       76       111       113 1     
       77       114       115 1     
       78       114       116 1     
       79       117       118 1     
       80       117       119 1     
       81       120       121 1     
       82       120       122 1     
       83       123       124 1     
       84       123       125 1     
       85       126       127 1     
       86       126       128 1     
       87       129       130 1     
       88       129       131 1     
       89       132       133 1     
       90       132       134 1     
       91       135       136 1     
       92       135       137 1     
       93       138       139 1     
       94       138       140 1     
       95       141       142 1     
       96       141       143 1     
       97       144       145 1     
       98       144       146 1     
       99       147       148 1     
      100       147       149 1     
      101       150       151 1     
      102       150       152 1     
      103       153       154 1     
      104       153       155 1     
      105       156       157 1     
      106       156       158 1     
      107       159       160 1     
      108       159       161 1     
      109       162       163 1     
      110       162       164 1     
      111       165       166 1     
      112       165       167 1     
      113       168       169 1     
      114       168       170 1     
      115       171       172 1     
      116       171       173 1     
      117       174       175 1     
      118       174       176 1     
      119       177       178 1     
      120       177       179 1     
      121       180       181 1     
      122       180       182 1     
      123       183       184 1     
      124       183       185 1     
      125       186       187 1     
      126       186       188 1     
      127       189       190 1     
      128       189       191 1     
      129       192       193 1     
      130       192       194 1     
      131       195       196 1     
      132       195       197 1     
      133       198       199 1     
      134       198       200 1     
      135       201       202 1     
      136       201       203 1     
      137       204       205 1     
      138       204       206 1     
      139       207       208 1     
      140       207       209 1     
      141       210       211 1     
      142       210       212 1     
      143       213       214 1     
      144       213       215 1     
      145       216       217 1     
      146       216       218 1     
      147       219       220 1     
      148       219       221 1     
      149       222       223 1     
      150       222       224 1     
      151       225       226 1     
      152       225       227 1     
      153       228       229 1     
      154       228       230 1     
      155       231       232 1     
      156       231       233 1     
      157       234       235 1     
      158       234       236 1     
      159       237       238 1     
      160       237       239 1     
      161       240       241 1     
      162       240       242 1     
      163       243       244 1     
      164       243       245 1     
      165       246       247 1     
      166       246       248 1     
      167       249       250 1     
      168       249       251 1     
      169       252       253 1     
      170       252       254 1     
      171       255       256 1     
      172       255       257 1     
      173       258       259 1     
      174       258       260 1     
      175       261       262 1     
      176       261       263 1     
      177       264       265 1     
      178       264       266 1     
      179       267       268 1     
      180       267       269 1     
      181       270       271 1     
      182       270       272 1     
      183       273       274 1     
      184       273       275 1     
      185       276       277 1     
      186       276       278 1     
      187       279       280 1     
      188       279       281 1     
      189       282       283 1     
      190       282       284 1     
      191       285       286 1     
      192       285       287 1     
      193       288       289 1     
      194       288       290 1     
      195       291       292 1     
      196       291       293 1     
      197       294       295 1     
      198       294       296 1     
      199       297       298 1     
      200       297       299 1     
      201       300       301 1     
      202       300       302 1     
      203       303       304 1     
      204       303       305 1     
      205       306       307 1     
      206       306       308 1     
      207       309       310 1     
      208       309       311 1     
      209       312       313 1     
      210       312       314 1     
      211       315       316 1     
      212       315       317 1     
      213       318       319 1     
      214       318       320 1     
      215       321       322 1     
      216       321       323 1     
      217       324       325 1     
      218       324       326 1     
      219       327       328 1     
      220       327       329 1     
      221       330       331 1     
      222       330       332 1     
      223       333       334 1     
      224       333       335 1     
      225       336       337 1     
      226       336       338 1     
      227       339       340 1     
      228       339       341 1     
      229       342       343 1     
      230       342       344 1     
      231       345       346 1     
      232       345       347 1     
      233       348       349 1     
      234       348       350 1     
      235       351       352 1     
      236       351       353 1     
      237       354       355 1     
      238       354       356 1     
      239       357       358 1     
      240       357       359 1     
      241       360       361 1     
      242       360       362 1     
      243       363       364 1     
      244       363       365 1     
      245       366       367 1     
      246       366       368 1     
      247       369       370 1     
      248       369       371 1     
      249       372       373 1     
      250       372       374 1     
      251       375       376 1     
      252       375       377 1     
      253       378       379 1     
      254       378       380 1     
      255       381       382 1     
      256       381       383 1     
      257       384       385 1     
      258       384       386 1     
      259       387       388 1     
      260       387       389 1     
      261       390       391 1     
      262       390       392 1     
      263       393       394 1     
      264       393       395 1     
      265       396       397 1     
      266       396       398 1     
      267       399       400 1     
      268       399       401 1     
      269       402       403 1     
      270       402       404 1     
      271       405       406 1     
      272       405       407 1     
      273       408       409 1     
      274       408       410 1     
      275       411       412 1     
      276       411       413 1     
      277       414       415 1     
      278       414       416 1     
      279       417       418 1     
      280       417       419 1     
      281       420       421 1     
      282       420       422 1     
      283       423       424 1     
      284       423       425 1     
      285       426       427 1     
      286       426       428 1     
      287       429       430 1     
      288       429       431 1     
      289       432       433 1     
      290       432       434 1     
      291       435       436 1     
      292       435       437 1     
      293       438       439 1     
      294       438       440 1     
      295       441       442 1     
      296       441       443 1     
      297       444       445 1     
      298       444       446 1     
      299       447       448 1     
      300       447       449 1     
      301       450       451 1     
      302       450       452 1     
      303       453       454 1     
      304       453       455 1     
      305       456       457 1     
      306       456       458 1     
      307       459       460 1     
      308       459       461 1     
      309       462       463 1     
      310       462       464 1     
      311       465       466 1     
      312       465       467 1     
      313       468       469 1     
      314       468       470 1     
      315       471       472 1     
      316       471       473 1     
      317       474       475 1     
      318       474       476 1     
      319       477       478 1     
      320       477       479 1     
      321       480       481 1     
      322       480       482 1     
      323       483       484 1     
      324       483       485 1     
      325       486       487 1     
      326       486       488 1     
      327       489       490 1     
      328       489       491 1     
      329       492       493 1     
      330       492       494 1     
      331       495       496 1     
      332       495       497 1     
      333       498       499 1     
      334       498       500 1     
      335       501       502 1     
      336       501       503 1     
      337       504       505 1     
      338       504       506 1     
      339       507       508 1     
      340       507       509 1     
      341       510       511 1     
      342       510       512 1     
      343       513       514 1     
      344       513       515 1     
      345       516       517 1     
      346       516       518 1     
      347       519       520 1     
      348       519       521 1     
      349       522       523 1     
      350       522       524 1     
      351       525       526 1     
      352       525       527 1     
      353       528       529 1     
      354       528       530 1     
      355       531       532 1     
      356       531       533 1     
      357       534       535 1     
      358       534       536 1     
      359       537       538 1     
      360       537       539 1     
      361       540       541 1     
      362       540       542 1     
      363       543       544 1     
      364       543       545 1     
      365       546       547 1     
      366       546       548 1     
      367       549       550 1     
      368       549       551 1     
      369       552       553 1     
      370       552       554 1     
      371       555       556 1     
      372       555       557 1     
      373       558       559 1     
      374       558       560 1     
      375       561       562 1     
      376       561       563 1     
      377       564       565 1     
      378       564       566 1     
      379       567       568 1     
      380       567       569 1     
      381       570       571 1     
      382       570       572 1     
      383       573       574 1     
      384       573       575 1     
      385       576       577 1     
      386       576       578 1     
      387       579       580 1     
      388       579       581 1     
      389       582       583 1     
      390       582       584 1     
      391       585       586 1     
      392       585       587 1     
      393       588       589 1     
      394       588       590 1     
      395       591       592 1     
      396       591       593 1     
      397       594       595 1     
      398       594       596 1     
      399       597       598 1     
      400       597       599 1     
      401       600       601 1     
      402       600       602 1     
      403       603       604 1     
      404       603       605 1     
      405       606       607 1     
      406       606       608 1     
      407       609       610 1     
      408       609       611 1     
      409       612       613 1     
      410       612       614 1     
      411       615       616 1     
      412       615       617 1     
      413       618       619 1     
      414       618       620 1     
      415       621       622 1     
      416       621       623 1     
      417       624       625 1     
      418       624       626 1     
      419       627       628 1     
      420       627       629 1     
      421       630       631 1     
      422       630       632 1     
      423       633       634 1     
      424       633       635 1     
      425       636       637 1     
      426       636       638 1     
      427       639       640 1     
      428       639       641 1     
      429       642       643 1     
      430       642       644 1     
      431       645       646 1     
      432       645       647 1     
      433       648       649 1     
      434       648       650 1     
      435       651       652 1     
      436       651       653 1     
      437       654       655 1     
      438       654       656 1     
      439       657       658 1     
      440       657       659 1     
      441       660       661 1     
      442       660       662 1     
      443       663       664 1     
      444       663       665 1     
      445       666       667 1     
      446       666       668 1     
      447       669       670 1     
      448       669       671 1     
      449       672       673 1     
      450       672       674 1     
      451       675       676 1     
      452       675       677 1     
      453       678       679 1     
      454       678       680 1     
      455       681       682 1     
      456       681       683 1     
      457       684       685 1     
      458       684       686 1     
      459       687       688 1     
      460       687       689 1     
      461       690       691 1     
      462       690       692 1     
      463       693       694 1     
      464       693       695 1     
      465       696       697 1     
      466       696       698 1     
      467       699       700 1     
      468       699       701 1     
      469       702       703 1     
      470       702       704 1     
      471       705       706 1     
      472       705       707 1     
      473       708       709 1     
      474       708       710 1     
      475       711       712 1     
      476       711       713 1     
      477       714       715 1     
      478       714       716 1     
      479       717       718 1     
      480       717       719 1     
      481       720       721 1     
      482       720       722 1     
      483       723       724 1     
      484       723       725 1     
      485       726       727 1     
      486       726       728 1     
      487       729       730 1     
      488       729       731 1     
      489       732       733 1     
      490       732       734 1     
      491       735       736 1     
      492       735       737 1     
      493       738       739 1     
      494       738       740 1     
      495       741       742 1     
      496       741       743 1     
      497       744       745 1     
      498       744       746 1     
      499       747       748 1     
      500       747       749 1     
      501       750       751 1     
      502       750       752 1     
      503       753       754 1     
      504       753       755 1     
      505       756       757 1     
      506       756       758 1     
      507       759       760 1     
      508       759       761 1     
      509       762       763 1     
      510       762       764 1     
      511       765       766 1     
      512       765       767 1     
      513       768       769 1     
      514       768       770 1     
      515       771       772 1     
      516       771       773 1     
      517       774       775 1     
      518       774       776 1     
      519       777       778 1     
      520       777       779 1     
      521       780       781 1     
      522       780       782 1     
      523       783       784 1     
      524       783       785 1     
      525       786       787 1     
      526       786       788 1     
      527       789       790 1     
      528       789       791 1     
      529       792       793 1     
      530       792       794 1     
      531       795       796 1     
      532       795       797 1     
      533       798       799 1     
      534       798       800 1     
      535       801       802 1     
      536       801       803 1     
      537       804       805 1     
      538       804       806 1     
      539       807       808 1     
      540       807       809 1     
      541       810       811 1     
      542       810       812 1     
      543       813       814 1     
      544       813       815 1     
      545       816       817 1     
      546       816       818 1     
      547       819       820 1     
      548       819       821 1     
      549       822       823 1     
      550       822       824 1     
      551       825       826 1     
      552       825       827 1     
      553       828       829 1     
      554       828       830 1     
      555       831       832 1     
      556       831       833 1     
      557       834       835 1     
      558       834       836 1     
      559       837       838 1     
      560       837       839 1     
      561       840       841 1     
      562       840       842 1     
      563       843       844 1     
      564       843       845 1     
      565       846       847 1     
      566       846       848 1     
      567       849       850 1     
      568       849       851 1     
      569       852       853 1     
      570       852       854 1     
      571       855       856 1     
      572       855       857 1     
      573       858       859 1     
      574       858       860 1     
      575       861       862 1     
      576       861       863 1     
      577       864       865 1     
      578       864       866 1     
      579       867       868 1     
      580       867       869 1     
      581       870       871 1     
      582       870       872 1     
      583       873       874 1     
      584       873       875 1     
      585       876       877 1     
      586       876       878 1     
      587       879       880 1     
      588       879       881 1     
      589       882       883 1     
      590       882       884 1     
      591       885       886 1     
      592       885       887 1     
      593       888       889 1     
      594       888       890 1     
      595       891       892 1     
      596       891       893 1     
      597       894       895 1     
      598       894       896 1     
      599       897       898 1     
      600       897       899 1     
      601       900       901 1     
      602       900       902 1     
      603       903       904 1     
      604       903       905 1     
      605       906       907 1     
      606       906       908 1     
      607       909       910 1     
      608       909       911 1     
      609       912       913 1     
      610       912       914 1     
      611       915       916 1     
      612       915       917 1     
      613       918       919 1     
      614       918       920 1     
      615       921       922 1     
      616       921       923 1     
      617       924       925 1     
      618       924       926 1     
      619       927       928 1     
      620       927       929 1     
      621       930       931 1     
      622       930       932 1     
      623       933       934 1     
      624       933       935 1     
      625       936       937 1     
      626       936       938 1     
      627       939       940 1     
      628       939       941 1     
      629       942       943 1     
      630       942       944 1     
      631       945       946 1     
      632       945       947 1     
      633       948       949 1     
      634       948       950 1     
      635       951       952 1     
      636       951       953 1     
      637       954       955 1     
      638       954       956 1     
      639       957       958 1     
      640       957       959 1     
      641       960       961 1     
      642       960       962 1     
      643       963       964 1     
      644       963       965 1     
      645       966       967 1     
      646       966       968 1     
      647       969       970 1     
      648       969       971 1     
      649       972       973 1     
      650       972       974 1     
      651       975       976 1     
      652       975       977 1     
      653       978       979 1     
      654       978       980 1     
      655       981       982 1     
      656       981       983 1     
      657       984       985 1     
      658       984       986 1     
      659       987       988 1     
      660       987       989 1     
      661       990       991 1     
      662       990       992 1     
      663       993       994 1     
      664       993       995 1     
      665       996       997 1     
      666       996       998 1     
      667       999      1000 1     
      668       999      1001 1     
      669      1002      1003 1     
      670      1002      1004 1     
      671      1005      1006 1     
      672      1005      1007 1     
      673      1008      1009 1     
      674      1008      1010 1     
      675      1011      1012 1     
      676      1011      1013 1     
      677      1014      1015 1     
      678      1014      1016 1     
      679      1017      1018 1     
      680      1017      1019 1     
      681      1020      1021 1     
      682      1020      1022 1     
      683      1023      1024 1     
      684      1023      1025 1     
      685      1026      1027 1     
      686      1026      1028 1     
      687      1029      1030 1     
      688      1029      1031 1     
      689      1032      1033 1     
      690      1032      1034 1     
      691      1035      1036 1     
      692      1035      1037 1     
      693      1038      1039 1     
      694      1038      1040 1     
      695      1041      1042 1     
      696      1041      1043 1     
      697      1044      1045 1     
      698      1044      1046 1     
      699      1047      1048 1     
      700      1047      1049 1     
      701      1050      1051 1     
      702      1050      1052 1     
      703      1053      1054 1     
      704      1053      1055 1     
      705      1056      1057 1     
      706      1056      1058 1     
      707      1059      1060 1     
      708      1059      1061 1     
      709      1062      1063 1     
      710      1062      1064 1     
      711      1065      1066 1     
      712      1065      1067 1     
      713      1068      1069 1     
      714      1068      1070 1     
      715      1071      1072 1     
      716      1071      1073 1     
      717      1074      1075 1     
      718      1074      1076 1     
      719      1077      1078 1     
      720      1077      1079 1     
      721      1080      1081 1     
      722      1080      1082 1     
      723      1083      1084 1     
      724      1083      1085 1     
      725      1086      1087 1     
      726      1086      1088 1     
      727      1089      1090 1     
      728      1089      1091 1     
      729      1092      1093 1     
      730      1092      1094 1     
      731      1095      1096 1     
      732      1095      1097 1     
      733      1098      1099 1     
      734      1098      1100 1     
      735      1101      1102 1     
      736      1101      1103 1     
      737      1104      1105 1     
      738      1104      1106 1     
      739      1107      1108 1     
      740      1107      1109 1     
      741      1110      1111 1     
      742      1110      1112 1     
      743      1113      1114 1     
      744      1113      1115 1     
      745      1116      1117 1     
      746      1116      1118 1     
      747      1119      1120 1     
      748      1119      1121 1     
      749      1122      1123 1     
      750      1122      1124 1     
      751      1125      1126 1     
      752      1125      1127 1     
      753      1128      1129 1     
      754      1128      1130 1     
      755      1131      1132 1     
      756      1131      1133 1     
      757      1134      1135 1     
      758      1134      1136 1     
      759      1137      1138 1     
      760      1137      1139 1     
      761      1140      1141 1     
      762      1140      1142 1     
      763      1143      1144 1     
      764      1143      1145 1     
      765      1146      1147 1     
      766      1146      1148 1     
      767      1149      1150 1     
      768      1149      1151 1     
      769      1152      1153 1     
      770      1152      1154 1     
      771      1155      1156 1     
      772      1155      1157 1     
      773      1158      1159 1     
      774      1158      1160 1     
      775      1161      1162 1     
      776      1161      1163 1     
      777      1164      1165 1     
      778      1164      1166 1     
      779      1167      1168 1     
      780      1167      1169 1     
      781      1170      1171 1     
      782      1170      1172 1     
      783      1173      1174 1     
      784      1173      1175 1     
      785      1176      1177 1     
      786      1176      1178 1     
      787      1179      1180 1     
      788      1179      1181 1     
      789      1182      1183 1     
      790      1182      1184 1     
      791      1185      1186 1     
      792      1185      1187 1     
      793      1188      1189 1     
      794      1188      1190 1     
      795      1191      1192 1     
      796      1191      1193 1     
      797      1194      1195 1     
      798      1194      1196 1     
      799      1197      1198 1     
      800      1197      1199 1     
      801      1200      1201 1     
      802      1200      1202 1     
      803      1203      1204 1     
      804      1203      1205 1     
      805      1206      1207 1     
      806      1206      1208 1     
      807      1209      1210 1     
      808      1209      1211 1     
      809      1212      1213 1     
      810      1212      1214 1     
      811      1215      1216 1     
      812      1215      1217 1     
      813      1218      1219 1     
      814      1218      1220 1     
      815      1221      1222 1     
      816      1221      1223 1     
      817      1224      1225 1     
      818      1224      1226 1     
      819      1227      1228 1     
      820      1227      1229 1     
      821      1230      1231 1     
      822      1230      1232 1     
      823      1233      1234 1     
      824      1233      1235 1     
      825      1236      1237 1     
      826      1236      1238 1     
      827      1239      1240 1     
      828      1239      1241 1     
      829      1242      1243 1     
      830      1242      1244 1     
      831      1245      1246 1     
      832      1245      1247 1     
      833      1248      1249 1     
      834      1248      1250 1     
      835      1251      1252 1     
      836      1251      1253 1     
      837      1254      1255 1     
      838      1254      1256 1     
      839      1257      1258 1     
      840      1257      1259 1     
      841      1260      1261 1     
      842      1260      1262 1     
      843      1263      1264 1     
      844      1263      1265 1     
      845      1266      1267 1     
      846      1266      1268 1     
      847      1269      1270 1     
      848      1269      1271 1     
      849      1272      1273 1     
      850      1272      1274 1     
      851      1275      1276 1     
      852      1275      1277 1     
      853      1278      1279 1     
      854      1278      1280 1     
      855      1281      1282 1     
      856      1281      1283 1     
      857      1284      1285 1     
      858      1284      1286 1     
      859      1287      1288 1     
      860      1287      1289 1     
      861      1290      1291 1     
      862      1290      1292 1     
      863      1293      1294 1     
      864      1293      1295 1     
      865      1296      1297 1     
      866      1296      1298 1     
      867      1299      1300 1     
      868      1299      1301 1     
      869      1302      1303 1     
      870      1302      1304 1     
      871      1305      1306 1     
      872      1305      1307 1     
      873      1308      1309 1     
      874      1308      1310 1     
      875      1311      1312 1     
      876      1311      1313 1     
      877      1314      1315 1     
      878      1314      1316 1     
      879      1317      1318 1     
      880      1317      1319 1     
      881      1320      1321 1     
      882      1320      1322 1     
      883      1323      1324 1     
      884      1323      1325 1     
      885      1326      1327 1     
      886      1326      1328 1     
      887      1329      1330 1     
      888      1329      1331 1     
      889      1332      1333 1     
      890      1332      1334 1     
      891      1335      1336 1     
      892      1335      1337 1     
      893      1338      1339 1     
      894      1338      1340 1     
      895      1341      1342 1     
      896      1341      1343 1     
      897      1344      1345 1     
      898      1344      1346 1     
      899      1347      1348 1     
      900      1347      1349 1     
      901      1350      1351 1     
      902      1350      1352 1     
      903      1353      1354 1     
      904      1353      1355 1     
      905      1356      1357 1     
      906      1356      1358 1     
      907      1359      1360 1     
      908      1359      1361 1     
      909      1362      1363 1     
      910      1362      1364 1     
      911      1365      1366 1     
      912      1365      1367 1     
      913      1368      1369 1     
      914      1368      1370 1     
      915      1371      1372 1     
      916      1371      1373 1     
      917      1374      1375 1     
      918      1374      1376 1     
      919      1377      1378 1     
      920      1377      1379 1     
      921      1380      1381 1     
      922      1380      1382 1     
      923      1383      1384 1     
      924      1383      1385 1     
      925      1386      1387 1     
      926      1386      1388 1     
      927      1389      1390 1     
      928      1389      1391 1     
      929      1392      1393 1     
      930      1392      1394 1     
      931      1395      1396 1     
      932      1395      1397 1     
      933      1398      1399 1     
      934      1398      1400 1     
      935      1401      1402 1     
      936      1401      1403 1     
      937      1404      1405 1     
      938      1404      1406 1     
      939      1407      1408 1     
      940      1407      1409 1     
      941      1410      1411 1     
      942      1410      1412 1     
      943      1413      1414 1     
      944      1413      1415 1     
      945      1416      1417 1     
      946      1416      1418 1     
      947      1419      1420 1     
      948      1419      1421 1     
      949      1422      1423 1     
      950      1422      1424 1     
      951      1425      1426 1     
      952      1425      1427 1     
      953      1428      1429 1     
      954      1428      1430 1     
      955      1431      1432 1     
      956      1431      1433 1     
      957      1434      1435 1     
      958      1434      1436 1     
      959      1437      1438 1     
      960      1437      1439 1     
      961      1440      1441 1     
      962      1440      1442 1     
      963      1443      1444 1     
      964      1443      1445 1     
      965      1446      1447 1     
      966      1446      1448 1     
      967      1449      1450 1     
      968      1449      1451 1     
      969      1452      1453 1     
      970      1452      1454 1     
      971      1455      1456 1     
      972      1455      1457 1     
      973      1458      1459 1     
      974      1458      1460 1     
      975      1461      1462 1     
      976      1461      1463 1     
      977      1464      1465 1     
      978      1464      1466 1     
      979      1467      1468 1     
      980      1467      1469 1     
      981      1470      1471 1     
      982      1470      1472 1     
      983      1473      1474 1     
      984      1473      1475 1     
      985      1476      1477 1     
      986      1476      1478 1     
      987      1479      1480 1     
      988      1479      1481 1     
      989      1482      1483 1     
      990      1482      1484 1     
      991      1485      1486 1     
      992      1485      1487 1     
      993      1488      1489 1     
      994      1488      1490 1     
      995      1491      1492 1     
      996      1491      1493 1     
      997      1494      1495 1     
      998      1494      1496 1     
      999      1497      1498 1     
     1000      1497      1499 1     
     1001      1500      1501 1     
     1002      1500      1502 1     
     1003      1503      1504 1     
     1004      1503      1505 1     
@<TRIPOS>SUBSTRUCTURE
 1     MOL01 1      
 2     SOL   6      
 3     SOL   9      
 4     SOL   12     
 5     SOL   15     
 6     SOL   18     
 7     SOL   21     
 8     SOL   24     
 9     SOL   27     
 10    SOL   30     
 11    SOL   33     
 12    SOL   36     
 13    SOL   39     
 14    SOL   42     
 15    SOL   45     
 16    SOL   48     
 17    SOL   51     
 18    SOL   54     
 19    SOL   57     
 20    SOL   60     
 21    SOL   63     
 22    SOL   66     
 23    SOL   69     
 24    SOL   72     
 25    SOL   75     
 26    SOL   78     
 27    SOL   81     
 28    SOL   84     
 29    SOL   87     
 30    SOL   90     
 31    SOL   93     
 32    SOL   96     
 33    SOL   99     
 34    SOL   102    
 35    SOL   105    
 36    SOL   108    
 37    SOL   111    
 38    SOL   114    
 39    SOL   117    
 40    SOL   120    
 41    SOL   123    
 42    SOL   126    
 43    SOL   129    
 44    SOL   132    
 45    SOL   135    
 46    SOL   138    
 47    SOL   141    
 48    SOL   144    
 49    SOL   147    
 50    SOL   150    
 51    SOL   153    
 52    SOL   156    
 53    SOL   159    
 54    SOL   162    
 55    SOL   165    
 56    SOL   168    
 57    SOL   171    
 58    SOL   174    
 59    SOL   177    
 60    SOL   180    
 61    SOL   183    
 62    SOL   186    
 63    SOL   189    
 64    SOL   192    
 65    SOL   195    
 66    SOL   198    
 67    SOL   201    
 68    SOL   204    
 69    SOL   207    
 70    SOL   210    
 71    SOL   213    
 72    SOL   216    
 73    SOL   219    
 74    SOL   222    
 75    SOL   225    
 76    SOL   228    
 77    SOL   231    
 78    SOL   234    
 79    SOL   237    
 80    SOL   240    
 81    SOL   243    
 82    SOL   246    
 83    SOL   249    
 84    SOL   252    
 85    SOL   255    
 86    SOL   258    
 87    SOL   261    
 88    SOL   264    
 89    SOL   267    
 90    SOL   270    
 91    SOL   273    
 92    SOL   276    
 93    SOL   279    
 94    SOL   282    
 95    SOL   285    
 96    SOL   288    
 97    SOL   291    
 98    SOL   294    
 99    SOL   297    
 100   SOL   300    
 101   SOL   303    
 102   SOL   306    
 103   SOL   309    
 104   SOL   312    
 105   SOL   315    
 106   SOL   318    
 107   SOL   321    
 108   SOL   324    
 109   SOL   327    
 110   SOL   330    
 111   SOL   333    
 112   SOL   336    
 113   SOL   339    
 114   SOL   342    
 115   SOL   345    
 116   SOL   348    
 117   SOL   351    
 118   SOL   354    
 119   SOL   357    
 120   SOL   360    
 121   SOL   363    
 122   SOL   366    
 123   SOL   369    
 124   SOL   372    
 125   SOL   375    
 126   SOL   378    
 127   SOL   381    
 128   SOL   384    
 129   SOL   387    
 130   SOL   390    
 131   SOL   393    
 132   SOL   396    
 133   SOL   399    
 134   SOL   402    
 135   SOL   405    
 136   SOL   408    
 137   SOL   411    
 138   SOL   414    
 139   SOL   417    
 140   SOL   420    
 141   SOL   423    
 142   SOL   426    
 143   SOL   429    
 144   SOL   432    
 145   SOL   435    
 146   SOL   438    
 147   SOL   441    
 148   SOL   444    
 149   SOL   447    
 150   SOL   450    
 151   SOL   453    
 152   SOL   456    
 153   SOL   459    
 154   SOL   462    
 155   SOL   465    
 156   SOL   468    
 157   SOL   471    
 158   SOL   474    
 159   SOL   477    
 160   SOL   480    
 161   SOL   483    
 162   SOL   486    
 163   SOL   489    
 164   SOL   492    
 165   SOL   495    
 166   SOL   498    
 167   SOL   501    
 168   SOL   504    
 169   SOL   507    
 170   SOL   510    
 171   SOL   513    
 172   SOL   516    
 173   SOL   519    
 174   SOL   522    
 175   SOL   525    
 176   SOL   528    
 177   SOL   531    
 178   SOL   534    
 179   SOL   537    
 180   SOL   540    
 181   SOL   543    
 182   SOL   546    
 183   SOL   549    
 184   SOL   552    
 185   SOL   555    
 186   SOL   558    
 187   SOL   561    
 188   SOL   564    
 189   SOL   567    
 190   SOL   570    
 191   SOL   573    
 192   SOL   576    
 193   SOL   579    
 194   SOL   582    
 195   SOL   585    
 196   SOL   588    
 197   SOL   591    
 198   SOL   594    
 199   SOL   597    
 200   SOL   600    
 201   SOL   603    
 202   SOL   606    
 203   SOL   609    
 204   SOL   612    
 205   SOL   615    
 206   SOL   618    
 207   SOL   621    
 208   SOL   624    
 209   SOL   627    
 210   SOL   630    
 211   SOL   633    
 212   SOL   636    
 213   SOL   639    
 214   SOL   642    
 215   SOL   645    
 216   SOL   648    
 217   SOL   651    
 218   SOL   654    
 219   SOL   657    
 220   SOL   660    
 221   SOL   663    
 222   SOL   666    
 223   SOL   669    
 224   SOL   672    
 225   SOL   675    
 226   SOL   678    
 227   SOL   681    
 228   SOL   684    
 229   SOL   687    
 230   SOL   690    
 231   SOL   693    
 232   SOL   696    
 233   SOL   699    
 234   SOL   702    
 235   SOL   705    
 236   SOL   708    
 237   SOL   711    
 238   SOL   714    
 239   SOL   717    
 240   SOL   720    
 241   SOL   723    
 242   SOL   726    
 243   SOL   729    
 244   SOL   732    
 245   SOL   735    
 246   SOL   738    
 247   SOL   741    
 248   SOL   744    
 249   SOL   747    
 250   SOL   750    
 251   SOL   753    
 252   SOL   756    
 253   SOL   759    
 254   SOL   762    
 255   SOL   765    
 256   SOL   768    
 257   SOL   771    
 258   SOL   774    
 259   SOL   777    
 260   SOL   780    
 261   SOL   783    
 262   SOL   786    
 263   SOL   789    
 264   SOL   792    
 265   SOL   795    
 266   SOL   798    
 267   SOL   801    
 268   SOL   804    
 269   SOL   807    
 270   SOL   810    
 271   SOL   813    
 272   SOL   816    
 273   SOL   819    
 274   SOL   822    
 275   SOL   825    
 276   SOL   828    
 277   SOL   831    
 278   SOL   834    
 279   SOL   837    
 280   SOL   840    
 281   SOL   843    
 282   SOL   846    
 283   SOL   849    
 284   SOL   852    
 285   SOL   855    
 286   SOL   858    
 287   SOL   861    
 288   SOL   864    
 289   SOL   867    
 290   SOL   870    
 291   SOL   873    
 292   SOL   876    
 293   SOL   879    
 294   SOL   882    
 295   SOL   885    
 296   SOL   888    
 297   SOL   891    
 298   SOL   894    
 299   SOL   897    
 300   SOL   900    
 301   SOL   903    
 302   SOL   906    
 303   SOL   909    
 304   SOL   912    
 305   SOL   915    
 306   SOL   918    
 307   SOL   921    
 308   SOL   924    
 309   SOL   927    
 310   SOL   930    
 311   SOL   933    
 312   SOL   936    
 313   SOL   939    
 314   SOL   942    
 315   SOL   945    
 316   SOL   948    
 317   SOL   951    
 318   SOL   954    
 319   SOL   957    
 320   SOL   960    
 321   SOL   963    
 322   SOL   966    
 323   SOL   969    
 324   SOL   972    
 325   SOL   975    
 326   SOL   978    
 327   SOL   981    
 328   SOL   984    
 329   SOL   987    
 330   SOL   990    
 331   SOL   993    
 332   SOL   996    
 333   SOL   999    
 334   SOL   1002   
 335   SOL   1005   
 336   SOL   1008   
 337   SOL   1011   
 338   SOL   1014   
 339   SOL   1017   
 340   SOL   1020   
 341   SOL   1023   
 342   SOL   1026   
 343   SOL   1029   
 344   SOL   1032   
 345   SOL   1035   
 346   SOL   1038   
 347   SOL   1041   
 348   SOL   1044   
 349   SOL   1047   
 350   SOL   1050   
 351   SOL   1053   
 352   SOL   1056   
 353   SOL   1059   
 354   SOL   1062   
 355   SOL   1065   
 356   SOL   1068   
 357   SOL   1071   
 358   SOL   1074   
 359   SOL   1077   
 360   SOL   1080   
 361   SOL   1083   
 362   SOL   1086   
 363   SOL   1089   
 364   SOL   1092   
 365   SOL   1095   
 366   SOL   1098   
 367   SOL   1101   
 368   SOL   1104   
 369   SOL   1107   
 370   SOL   1110   
 371   SOL   1113   
 372   SOL   1116   
 373   SOL   1119   
 374   SOL   1122   
 375   SOL   1125   
 376   SOL   1128   
 377   SOL   1131   
 378   SOL   1134   
 379   SOL   1137   
 380   SOL   1140   
 381   SOL   1143   
 382   SOL   1146   
 383   SOL   1149   
 384   SOL   1152   
 385   SOL   1155   
 386   SOL   1158   
 387   SOL   1161   
 388   SOL   1164   
 389   SOL   1167   
 390   SOL   1170   
 391   SOL   1173   
 392   SOL   1176   
 393   SOL   1179   
 394   SOL   1182   
 395   SOL   1185   
 396   SOL   1188   
 397   SOL   1191   
 398   SOL   1194   
 399   SOL   1197   
 400   SOL   1200   
 401   SOL   1203   
 402   SOL   1206   
 403   SOL   1209   
 404   SOL   1212   
 405   SOL   1215   
 406   SOL   1218   
 407   SOL   1221   
 408   SOL   1224   
 409   SOL   1227   
 410   SOL   1230   
 411   SOL   1233   
 412   SOL   1236   
 413   SOL   1239   
 414   SOL   1242   
 415   SOL   1245   
 416   SOL   1248   
 417   SOL   1251   
 418   SOL   1254   
 419   SOL   1257   
 420   SOL   1260   
 421   SOL   1263   
 422   SOL   1266   
 423   SOL   1269   
 424   SOL   1272   
 425   SOL   1275   
 426   SOL   1278   
 427   SOL   1281   
 428   SOL   1284   
 429   SOL   1287   
 430   SOL   1290   
 431   SOL   1293   
 432   SOL   1296   
 433   SOL   1299   
 434   SOL   1302   
 435   SOL   1305   
 436   SOL   1308   
 437   SOL   1311   
 438   SOL   1314   
 439   SOL   1317   
 440   SOL   1320   
 441   SOL   1323   
 442   SOL   1326   
 443   SOL   1329   
 444   SOL   1332   
 445   SOL   1335   
 446   SOL   1338   
 447   SOL   1341   
 448   SOL   1344   
 449   SOL   1347   
 450   SOL   1350   
 451   SOL   1353   
 452   SOL   1356   
 453   SOL   1359   
 454   SOL   1362   
 455   SOL   1365   
 456   SOL   1368   
 457   SOL   1371   
 458   SOL   1374   
 459   SOL   1377   
 460   SOL   1380   
 461   SOL   1383   
 462   SOL   1386   
 463   SOL   1389   
 464   SOL   1392   
 465   SOL   1395   
 466   SOL   1398   
 467   SOL   1401   
 468   SOL   1404   
 469   SOL   1407   
 470   SOL   1410   
 471   SOL   1413   
 472   SOL   1416   
 473   SOL   1419   
 474   SOL   1422   
 475   SOL   1425   
 476   SOL   1428   
 477   SOL   1431   
 478   SOL   1434   
 479   SOL   1437   
 480   SOL   1440   
 481   SOL   1443   
 482   SOL   1446   
 483   SOL   1449   
 484   SOL   1452   
 485   SOL   1455   
 486   SOL   1458   
 487   SOL   1461   
 488   SOL   1464   
 489   SOL   1467   
 490   SOL   1470   
 491   SOL   1473   
 492   SOL   1476   
 493   SOL   1479   
 494   SOL   1482   
 495   SOL   1485   
 496   SOL   1488   
 497   SOL   1491   
 498   SOL   1494   
 499   SOL   1497   
 500   SOL   1500   
 501   SOL   1503   
@<TRIPOS>COMMENT
 WM_BOX
        p         0.000000000000000        24.754399999999997         0.000000000000000         0.000000000000000
        p         0.000000000000000         0.000000000000000        24.754399999999997         0.000000000000000
        p         0.000000000000000         0.000000000000000         0.000000000000000        24.754399999999997
