@<TRIPOS>MOLECULE
Diamond
         2         1         1         0         0
SMALL
NO_CHARGES

@<TRIPOS>ATOM
        1 C          0.000000000         0.000000000         0.000000000 C.3   1 UNK    0.0000
        2 C          0.890000000         0.890000000         0.890000000 C.3   1 UNK    0.0000
@<TRIPOS>BOND
        1        2        1 1     
@<TRIPOS>SUBSTRUCTURE
 1 UNK 1
@<TRIPOS>COMMENT
 WM_BOX
        p         0.000000000000000         1.780000000000000         1.780000000000000         0.000000000000000
        p         0.000000000000000         1.780000000000000         0.000000000000000         1.780000000000000
        p         0.000000000000000         0.000000000000000         1.780000000000000         1.780000000000000
