@<TRIPOS>MOLECULE
Winmostar
         9         8         1         0         0
SMALL
USER_CHARGES


@<TRIPOS>ATOM
        1 C             0.000000000         0.000000000         0.000000000 C.3       1 UNK     -0.097100000
        2 C             1.493800000         0.000000000         0.000000000 C.3       1 UNK      0.131400000
        3 H            -0.358124970         1.040070433         0.000000000 H         1 UNK      0.044367000
        4 H            -0.358124970        -0.520035217        -0.900727417 H         1 UNK      0.044367000
        5 H            -0.358124970        -0.520035217         0.900727417 H         1 UNK      0.044367000
        6 H             1.851924970         0.520035217        -0.900727417 H         1 UNK      0.018700000
        7 H             1.851924970         0.520035217         0.900727417 H         1 UNK      0.018700000
        8 O             1.967501665        -1.375729527         0.000000000 O.3       1 UNK     -0.602802000
        9 H             2.906223627        -1.258448583        -0.163236817 H         1 UNK      0.398000000
@<TRIPOS>BOND
        1         1         2 1     
        2         1         3 1     
        3         1         4 1     
        4         1         5 1     
        5         2         6 1     
        6         2         7 1     
        7         2         8 1     
        8         8         9 1     
@<TRIPOS>SUBSTRUCTURE
 1 UNK 1
@<TRIPOS>COMMENT
