@<TRIPOS>MOLECULE
Winmostar
      2670      3380         1         0         0
SMALL
USER_CHARGES


@<TRIPOS>ATOM
        1 C             0.000000000         2.836022688         6.348000000 C.ar      1 UNK      0.000000000
        2 C             0.000000000         1.418011344         6.348000000 C.ar      1 UNK      0.000000000
        3 C             1.228000000         0.709005672         6.348000000 C.ar      1 UNK      0.000000000
        4 C             1.228000000         3.544977312         6.348000000 C.ar      1 UNK      0.000000000
        5 C             2.456000000         2.836022688         6.348000000 C.ar      1 UNK      0.000000000
        6 C             2.456000000         1.418011344         6.348000000 C.ar      1 UNK      0.000000000
        7 C             3.684000000         0.709005672         6.348000000 C.ar      1 UNK      0.000000000
        8 C             3.684000000         3.544977312         6.348000000 C.ar      1 UNK      0.000000000
        9 C             4.912000000         2.836022688         6.348000000 C.ar      1 UNK      0.000000000
       10 C             4.912000000         1.418011344         6.348000000 C.ar      1 UNK      0.000000000
       11 C             6.140000000         0.709005672         6.348000000 C.ar      1 UNK      0.000000000
       12 C             6.140000000         3.544977312         6.348000000 C.ar      1 UNK      0.000000000
       13 C             7.368000000         2.836022688         6.348000000 C.ar      1 UNK      0.000000000
       14 C             7.368000000         1.418011344         6.348000000 C.ar      1 UNK      0.000000000
       15 C             8.596000000         0.709005672         6.348000000 C.ar      1 UNK      0.000000000
       16 C             8.596000000         3.544977312         6.348000000 C.ar      1 UNK      0.000000000
       17 C             9.824000000         2.836022688         6.348000000 C.ar      1 UNK      0.000000000
       18 C             9.824000000         1.418011344         6.348000000 C.ar      1 UNK      0.000000000
       19 C            11.052000000         0.709005672         6.348000000 C.ar      1 UNK      0.000000000
       20 C            11.052000000         3.544977312         6.348000000 C.ar      1 UNK      0.000000000
       21 C            12.280000000         2.836022688         6.348000000 C.ar      1 UNK      0.000000000
       22 C            12.280000000         1.418011344         6.348000000 C.ar      1 UNK      0.000000000
       23 C            13.508000000         0.709005672         6.348000000 C.ar      1 UNK      0.000000000
       24 C            13.508000000         3.544977312         6.348000000 C.ar      1 UNK      0.000000000
       25 C            14.736000000         2.836022688         6.348000000 C.ar      1 UNK      0.000000000
       26 C            14.736000000         1.418011344         6.348000000 C.ar      1 UNK      0.000000000
       27 C            15.964000000         0.709005672         6.348000000 C.ar      1 UNK      0.000000000
       28 C            15.964000000         3.544977312         6.348000000 C.ar      1 UNK      0.000000000
       29 C            17.192000000         2.836022688         6.348000000 C.ar      1 UNK      0.000000000
       30 C            17.192000000         1.418011344         6.348000000 C.ar      1 UNK      0.000000000
       31 C            18.420000000         0.709005672         6.348000000 C.ar      1 UNK      0.000000000
       32 C            18.420000000         3.544977312         6.348000000 C.ar      1 UNK      0.000000000
       33 C            19.648000000         2.836022688         6.348000000 C.ar      1 UNK      0.000000000
       34 C            19.648000000         1.418011344         6.348000000 C.ar      1 UNK      0.000000000
       35 C            20.876000000         0.709005672         6.348000000 C.ar      1 UNK      0.000000000
       36 C            20.876000000         3.544977312         6.348000000 C.ar      1 UNK      0.000000000
       37 C            22.104000000         2.836022688         6.348000000 C.ar      1 UNK      0.000000000
       38 C            22.104000000         1.418011344         6.348000000 C.ar      1 UNK      0.000000000
       39 C            23.332000000         0.709005672         6.348000000 C.ar      1 UNK      0.000000000
       40 C            23.332000000         3.544977312         6.348000000 C.ar      1 UNK      0.000000000
       41 C            24.560000000         2.836022688         6.348000000 C.ar      1 UNK      0.000000000
       42 C            24.560000000         1.418011344         6.348000000 C.ar      1 UNK      0.000000000
       43 C            25.788000000         0.709005672         6.348000000 C.ar      1 UNK      0.000000000
       44 C            25.788000000         3.544977312         6.348000000 C.ar      1 UNK      0.000000000
       45 C            27.016000000         2.836022688         6.348000000 C.ar      1 UNK      0.000000000
       46 C            27.016000000         1.418011344         6.348000000 C.ar      1 UNK      0.000000000
       47 C            28.244000000         0.709005672         6.348000000 C.ar      1 UNK      0.000000000
       48 C            28.244000000         3.544977312         6.348000000 C.ar      1 UNK      0.000000000
       49 C            29.472000000         2.836022688         6.348000000 C.ar      1 UNK      0.000000000
       50 C            29.472000000         1.418011344         6.348000000 C.ar      1 UNK      0.000000000
       51 C            30.700000000         0.709005672         6.348000000 C.ar      1 UNK      0.000000000
       52 C            30.700000000         3.544977312         6.348000000 C.ar      1 UNK      0.000000000
       53 C            31.928000000         2.836022688         6.348000000 C.ar      1 UNK      0.000000000
       54 C            31.928000000         1.418011344         6.348000000 C.ar      1 UNK      0.000000000
       55 C            33.156000000         0.709005672         6.348000000 C.ar      1 UNK      0.000000000
       56 C            33.156000000         3.544977312         6.348000000 C.ar      1 UNK      0.000000000
       57 C            34.384000000         2.836022688         6.348000000 C.ar      1 UNK      0.000000000
       58 C            34.384000000         1.418011344         6.348000000 C.ar      1 UNK      0.000000000
       59 C            35.612000000         0.709005672         6.348000000 C.ar      1 UNK      0.000000000
       60 C            35.612000000         3.544977312         6.348000000 C.ar      1 UNK      0.000000000
       61 C            36.840000000         2.836022688         6.348000000 C.ar      1 UNK      0.000000000
       62 C            36.840000000         1.418011344         6.348000000 C.ar      1 UNK      0.000000000
       63 C            38.068000000         0.709005672         6.348000000 C.ar      1 UNK      0.000000000
       64 C            38.068000000         3.544977312         6.348000000 C.ar      1 UNK      0.000000000
       65 C            39.296000000         2.836022688         6.348000000 C.ar      1 UNK      0.000000000
       66 C            39.296000000         1.418011344         6.348000000 C.ar      1 UNK      0.000000000
       67 C            40.524000000         0.709005672         6.348000000 C.ar      1 UNK      0.000000000
       68 C            40.524000000         3.544977312         6.348000000 C.ar      1 UNK      0.000000000
       69 C            41.752000000         2.836022688         6.348000000 C.ar      1 UNK      0.000000000
       70 C            41.752000000         1.418011344         6.348000000 C.ar      1 UNK      0.000000000
       71 C            42.980000000         0.709005672         6.348000000 C.ar      1 UNK      0.000000000
       72 C            42.980000000         3.544977312         6.348000000 C.ar      1 UNK      0.000000000
       73 C            44.208000000         2.836022688         6.348000000 C.ar      1 UNK      0.000000000
       74 C            44.208000000         1.418011344         6.348000000 C.ar      1 UNK      0.000000000
       75 C            45.436000000         0.709005672         6.348000000 C.ar      1 UNK      0.000000000
       76 C            45.436000000         3.544977312         6.348000000 C.ar      1 UNK      0.000000000
       77 C            46.664000000         2.836022688         6.348000000 C.ar      1 UNK      0.000000000
       78 C            46.664000000         1.418011344         6.348000000 C.ar      1 UNK      0.000000000
       79 C            47.892000000         0.709005672         6.348000000 C.ar      1 UNK      0.000000000
       80 C            47.892000000         3.544977312         6.348000000 C.ar      1 UNK      0.000000000
       81 C             0.000000000         7.090005672         6.348000000 C.ar      1 UNK      0.000000000
       82 C             0.000000000         5.671994328         6.348000000 C.ar      1 UNK      0.000000000
       83 C             1.228000000         4.962988656         6.348000000 C.ar      1 UNK      0.000000000
       84 C             1.228000000         7.799011344         6.348000000 C.ar      1 UNK      0.000000000
       85 C             2.456000000         7.090005672         6.348000000 C.ar      1 UNK      0.000000000
       86 C             2.456000000         5.671994328         6.348000000 C.ar      1 UNK      0.000000000
       87 C             3.684000000         4.962988656         6.348000000 C.ar      1 UNK      0.000000000
       88 C             3.684000000         7.799011344         6.348000000 C.ar      1 UNK      0.000000000
       89 C             4.912000000         7.090005672         6.348000000 C.ar      1 UNK      0.000000000
       90 C             4.912000000         5.671994328         6.348000000 C.ar      1 UNK      0.000000000
       91 C             6.140000000         4.962988656         6.348000000 C.ar      1 UNK      0.000000000
       92 C             6.140000000         7.799011344         6.348000000 C.ar      1 UNK      0.000000000
       93 C             7.368000000         7.090005672         6.348000000 C.ar      1 UNK      0.000000000
       94 C             7.368000000         5.671994328         6.348000000 C.ar      1 UNK      0.000000000
       95 C             8.596000000         4.962988656         6.348000000 C.ar      1 UNK      0.000000000
       96 C             8.596000000         7.799011344         6.348000000 C.ar      1 UNK      0.000000000
       97 C             9.824000000         7.090005672         6.348000000 C.ar      1 UNK      0.000000000
       98 C             9.824000000         5.671994328         6.348000000 C.ar      1 UNK      0.000000000
       99 C            11.052000000         4.962988656         6.348000000 C.ar      1 UNK      0.000000000
      100 C            11.052000000         7.799011344         6.348000000 C.ar      1 UNK      0.000000000
      101 C            12.280000000         7.090005672         6.348000000 C.ar      1 UNK      0.000000000
      102 C            12.280000000         5.671994328         6.348000000 C.ar      1 UNK      0.000000000
      103 C            13.508000000         4.962988656         6.348000000 C.ar      1 UNK      0.000000000
      104 C            13.508000000         7.799011344         6.348000000 C.ar      1 UNK      0.000000000
      105 C            14.736000000         7.090005672         6.348000000 C.ar      1 UNK      0.000000000
      106 C            14.736000000         5.671994328         6.348000000 C.ar      1 UNK      0.000000000
      107 C            15.964000000         4.962988656         6.348000000 C.ar      1 UNK      0.000000000
      108 C            15.964000000         7.799011344         6.348000000 C.ar      1 UNK      0.000000000
      109 C            17.192000000         7.090005672         6.348000000 C.ar      1 UNK      0.000000000
      110 C            17.192000000         5.671994328         6.348000000 C.ar      1 UNK      0.000000000
      111 C            18.420000000         4.962988656         6.348000000 C.ar      1 UNK      0.000000000
      112 C            18.420000000         7.799011344         6.348000000 C.ar      1 UNK      0.000000000
      113 C            19.648000000         7.090005672         6.348000000 C.ar      1 UNK      0.000000000
      114 C            19.648000000         5.671994328         6.348000000 C.ar      1 UNK      0.000000000
      115 C            20.876000000         4.962988656         6.348000000 C.ar      1 UNK      0.000000000
      116 C            20.876000000         7.799011344         6.348000000 C.ar      1 UNK      0.000000000
      117 C            22.104000000         7.090005672         6.348000000 C.ar      1 UNK      0.000000000
      118 C            22.104000000         5.671994328         6.348000000 C.ar      1 UNK      0.000000000
      119 C            23.332000000         4.962988656         6.348000000 C.ar      1 UNK      0.000000000
      120 C            23.332000000         7.799011344         6.348000000 C.ar      1 UNK      0.000000000
      121 C            24.560000000         7.090005672         6.348000000 C.ar      1 UNK      0.000000000
      122 C            24.560000000         5.671994328         6.348000000 C.ar      1 UNK      0.000000000
      123 C            25.788000000         4.962988656         6.348000000 C.ar      1 UNK      0.000000000
      124 C            25.788000000         7.799011344         6.348000000 C.ar      1 UNK      0.000000000
      125 C            27.016000000         7.090005672         6.348000000 C.ar      1 UNK      0.000000000
      126 C            27.016000000         5.671994328         6.348000000 C.ar      1 UNK      0.000000000
      127 C            28.244000000         4.962988656         6.348000000 C.ar      1 UNK      0.000000000
      128 C            28.244000000         7.799011344         6.348000000 C.ar      1 UNK      0.000000000
      129 C            29.472000000         7.090005672         6.348000000 C.ar      1 UNK      0.000000000
      130 C            29.472000000         5.671994328         6.348000000 C.ar      1 UNK      0.000000000
      131 C            30.700000000         4.962988656         6.348000000 C.ar      1 UNK      0.000000000
      132 C            30.700000000         7.799011344         6.348000000 C.ar      1 UNK      0.000000000
      133 C            31.928000000         7.090005672         6.348000000 C.ar      1 UNK      0.000000000
      134 C            31.928000000         5.671994328         6.348000000 C.ar      1 UNK      0.000000000
      135 C            33.156000000         4.962988656         6.348000000 C.ar      1 UNK      0.000000000
      136 C            33.156000000         7.799011344         6.348000000 C.ar      1 UNK      0.000000000
      137 C            34.384000000         7.090005672         6.348000000 C.ar      1 UNK      0.000000000
      138 C            34.384000000         5.671994328         6.348000000 C.ar      1 UNK      0.000000000
      139 C            35.612000000         4.962988656         6.348000000 C.ar      1 UNK      0.000000000
      140 C            35.612000000         7.799011344         6.348000000 C.ar      1 UNK      0.000000000
      141 C            36.840000000         7.090005672         6.348000000 C.ar      1 UNK      0.000000000
      142 C            36.840000000         5.671994328         6.348000000 C.ar      1 UNK      0.000000000
      143 C            38.068000000         4.962988656         6.348000000 C.ar      1 UNK      0.000000000
      144 C            38.068000000         7.799011344         6.348000000 C.ar      1 UNK      0.000000000
      145 C            39.296000000         7.090005672         6.348000000 C.ar      1 UNK      0.000000000
      146 C            39.296000000         5.671994328         6.348000000 C.ar      1 UNK      0.000000000
      147 C            40.524000000         4.962988656         6.348000000 C.ar      1 UNK      0.000000000
      148 C            40.524000000         7.799011344         6.348000000 C.ar      1 UNK      0.000000000
      149 C            41.752000000         7.090005672         6.348000000 C.ar      1 UNK      0.000000000
      150 C            41.752000000         5.671994328         6.348000000 C.ar      1 UNK      0.000000000
      151 C            42.980000000         4.962988656         6.348000000 C.ar      1 UNK      0.000000000
      152 C            42.980000000         7.799011344         6.348000000 C.ar      1 UNK      0.000000000
      153 C            44.208000000         7.090005672         6.348000000 C.ar      1 UNK      0.000000000
      154 C            44.208000000         5.671994328         6.348000000 C.ar      1 UNK      0.000000000
      155 C            45.436000000         4.962988656         6.348000000 C.ar      1 UNK      0.000000000
      156 C            45.436000000         7.799011344         6.348000000 C.ar      1 UNK      0.000000000
      157 C            46.664000000         7.090005672         6.348000000 C.ar      1 UNK      0.000000000
      158 C            46.664000000         5.671994328         6.348000000 C.ar      1 UNK      0.000000000
      159 C            47.892000000         4.962988656         6.348000000 C.ar      1 UNK      0.000000000
      160 C            47.892000000         7.799011344         6.348000000 C.ar      1 UNK      0.000000000
      161 C             0.000000000        11.343988656         6.348000000 C.ar      1 UNK      0.000000000
      162 C             0.000000000         9.925977312         6.348000000 C.ar      1 UNK      0.000000000
      163 C             1.228000000         9.217022688         6.348000000 C.ar      1 UNK      0.000000000
      164 C             1.228000000        12.052994328         6.348000000 C.ar      1 UNK      0.000000000
      165 C             2.456000000        11.343988656         6.348000000 C.ar      1 UNK      0.000000000
      166 C             2.456000000         9.925977312         6.348000000 C.ar      1 UNK      0.000000000
      167 C             3.684000000         9.217022688         6.348000000 C.ar      1 UNK      0.000000000
      168 C             3.684000000        12.052994328         6.348000000 C.ar      1 UNK      0.000000000
      169 C             4.912000000        11.343988656         6.348000000 C.ar      1 UNK      0.000000000
      170 C             4.912000000         9.925977312         6.348000000 C.ar      1 UNK      0.000000000
      171 C             6.140000000         9.217022688         6.348000000 C.ar      1 UNK      0.000000000
      172 C             6.140000000        12.052994328         6.348000000 C.ar      1 UNK      0.000000000
      173 C             7.368000000        11.343988656         6.348000000 C.ar      1 UNK      0.000000000
      174 C             7.368000000         9.925977312         6.348000000 C.ar      1 UNK      0.000000000
      175 C             8.596000000         9.217022688         6.348000000 C.ar      1 UNK      0.000000000
      176 C             8.596000000        12.052994328         6.348000000 C.ar      1 UNK      0.000000000
      177 C             9.824000000        11.343988656         6.348000000 C.ar      1 UNK      0.000000000
      178 C             9.824000000         9.925977312         6.348000000 C.ar      1 UNK      0.000000000
      179 C            11.052000000         9.217022688         6.348000000 C.ar      1 UNK      0.000000000
      180 C            11.052000000        12.052994328         6.348000000 C.ar      1 UNK      0.000000000
      181 C            12.280000000        11.343988656         6.348000000 C.ar      1 UNK      0.000000000
      182 C            12.280000000         9.925977312         6.348000000 C.ar      1 UNK      0.000000000
      183 C            13.508000000         9.217022688         6.348000000 C.ar      1 UNK      0.000000000
      184 C            13.508000000        12.052994328         6.348000000 C.ar      1 UNK      0.000000000
      185 C            14.736000000        11.343988656         6.348000000 C.ar      1 UNK      0.000000000
      186 C            14.736000000         9.925977312         6.348000000 C.ar      1 UNK      0.000000000
      187 C            15.964000000         9.217022688         6.348000000 C.ar      1 UNK      0.000000000
      188 C            15.964000000        12.052994328         6.348000000 C.ar      1 UNK      0.000000000
      189 C            17.192000000        11.343988656         6.348000000 C.ar      1 UNK      0.000000000
      190 C            17.192000000         9.925977312         6.348000000 C.ar      1 UNK      0.000000000
      191 C            18.420000000         9.217022688         6.348000000 C.ar      1 UNK      0.000000000
      192 C            18.420000000        12.052994328         6.348000000 C.ar      1 UNK      0.000000000
      193 C            19.648000000        11.343988656         6.348000000 C.ar      1 UNK      0.000000000
      194 C            19.648000000         9.925977312         6.348000000 C.ar      1 UNK      0.000000000
      195 C            20.876000000         9.217022688         6.348000000 C.ar      1 UNK      0.000000000
      196 C            20.876000000        12.052994328         6.348000000 C.ar      1 UNK      0.000000000
      197 C            22.104000000        11.343988656         6.348000000 C.ar      1 UNK      0.000000000
      198 C            22.104000000         9.925977312         6.348000000 C.ar      1 UNK      0.000000000
      199 C            23.332000000         9.217022688         6.348000000 C.ar      1 UNK      0.000000000
      200 C            23.332000000        12.052994328         6.348000000 C.ar      1 UNK      0.000000000
      201 C            24.560000000        11.343988656         6.348000000 C.ar      1 UNK      0.000000000
      202 C            24.560000000         9.925977312         6.348000000 C.ar      1 UNK      0.000000000
      203 C            25.788000000         9.217022688         6.348000000 C.ar      1 UNK      0.000000000
      204 C            25.788000000        12.052994328         6.348000000 C.ar      1 UNK      0.000000000
      205 C            27.016000000        11.343988656         6.348000000 C.ar      1 UNK      0.000000000
      206 C            27.016000000         9.925977312         6.348000000 C.ar      1 UNK      0.000000000
      207 C            28.244000000         9.217022688         6.348000000 C.ar      1 UNK      0.000000000
      208 C            28.244000000        12.052994328         6.348000000 C.ar      1 UNK      0.000000000
      209 C            29.472000000        11.343988656         6.348000000 C.ar      1 UNK      0.000000000
      210 C            29.472000000         9.925977312         6.348000000 C.ar      1 UNK      0.000000000
      211 C            30.700000000         9.217022688         6.348000000 C.ar      1 UNK      0.000000000
      212 C            30.700000000        12.052994328         6.348000000 C.ar      1 UNK      0.000000000
      213 C            31.928000000        11.343988656         6.348000000 C.ar      1 UNK      0.000000000
      214 C            31.928000000         9.925977312         6.348000000 C.ar      1 UNK      0.000000000
      215 C            33.156000000         9.217022688         6.348000000 C.ar      1 UNK      0.000000000
      216 C            33.156000000        12.052994328         6.348000000 C.ar      1 UNK      0.000000000
      217 C            34.384000000        11.343988656         6.348000000 C.ar      1 UNK      0.000000000
      218 C            34.384000000         9.925977312         6.348000000 C.ar      1 UNK      0.000000000
      219 C            35.612000000         9.217022688         6.348000000 C.ar      1 UNK      0.000000000
      220 C            35.612000000        12.052994328         6.348000000 C.ar      1 UNK      0.000000000
      221 C            36.840000000        11.343988656         6.348000000 C.ar      1 UNK      0.000000000
      222 C            36.840000000         9.925977312         6.348000000 C.ar      1 UNK      0.000000000
      223 C            38.068000000         9.217022688         6.348000000 C.ar      1 UNK      0.000000000
      224 C            38.068000000        12.052994328         6.348000000 C.ar      1 UNK      0.000000000
      225 C            39.296000000        11.343988656         6.348000000 C.ar      1 UNK      0.000000000
      226 C            39.296000000         9.925977312         6.348000000 C.ar      1 UNK      0.000000000
      227 C            40.524000000         9.217022688         6.348000000 C.ar      1 UNK      0.000000000
      228 C            40.524000000        12.052994328         6.348000000 C.ar      1 UNK      0.000000000
      229 C            41.752000000        11.343988656         6.348000000 C.ar      1 UNK      0.000000000
      230 C            41.752000000         9.925977312         6.348000000 C.ar      1 UNK      0.000000000
      231 C            42.980000000         9.217022688         6.348000000 C.ar      1 UNK      0.000000000
      232 C            42.980000000        12.052994328         6.348000000 C.ar      1 UNK      0.000000000
      233 C            44.208000000        11.343988656         6.348000000 C.ar      1 UNK      0.000000000
      234 C            44.208000000         9.925977312         6.348000000 C.ar      1 UNK      0.000000000
      235 C            45.436000000         9.217022688         6.348000000 C.ar      1 UNK      0.000000000
      236 C            45.436000000        12.052994328         6.348000000 C.ar      1 UNK      0.000000000
      237 C            46.664000000        11.343988656         6.348000000 C.ar      1 UNK      0.000000000
      238 C            46.664000000         9.925977312         6.348000000 C.ar      1 UNK      0.000000000
      239 C            47.892000000         9.217022688         6.348000000 C.ar      1 UNK      0.000000000
      240 C            47.892000000        12.052994328         6.348000000 C.ar      1 UNK      0.000000000
      241 C             0.000000000        15.598022688         6.348000000 C.ar      1 UNK      0.000000000
      242 C             0.000000000        14.180011344         6.348000000 C.ar      1 UNK      0.000000000
      243 C             1.228000000        13.471005672         6.348000000 C.ar      1 UNK      0.000000000
      244 C             1.228000000        16.306977312         6.348000000 C.ar      1 UNK      0.000000000
      245 C             2.456000000        15.598022688         6.348000000 C.ar      1 UNK      0.000000000
      246 C             2.456000000        14.180011344         6.348000000 C.ar      1 UNK      0.000000000
      247 C             3.684000000        13.471005672         6.348000000 C.ar      1 UNK      0.000000000
      248 C             3.684000000        16.306977312         6.348000000 C.ar      1 UNK      0.000000000
      249 C             4.912000000        15.598022688         6.348000000 C.ar      1 UNK      0.000000000
      250 C             4.912000000        14.180011344         6.348000000 C.ar      1 UNK      0.000000000
      251 C             6.140000000        13.471005672         6.348000000 C.ar      1 UNK      0.000000000
      252 C             6.140000000        16.306977312         6.348000000 C.ar      1 UNK      0.000000000
      253 C             7.368000000        15.598022688         6.348000000 C.ar      1 UNK      0.000000000
      254 C             7.368000000        14.180011344         6.348000000 C.ar      1 UNK      0.000000000
      255 C             8.596000000        13.471005672         6.348000000 C.ar      1 UNK      0.000000000
      256 C             8.596000000        16.306977312         6.348000000 C.ar      1 UNK      0.000000000
      257 C             9.824000000        15.598022688         6.348000000 C.ar      1 UNK      0.000000000
      258 C             9.824000000        14.180011344         6.348000000 C.ar      1 UNK      0.000000000
      259 C            11.052000000        13.471005672         6.348000000 C.ar      1 UNK      0.000000000
      260 C            11.052000000        16.306977312         6.348000000 C.ar      1 UNK      0.000000000
      261 C            12.280000000        15.598022688         6.348000000 C.ar      1 UNK      0.000000000
      262 C            12.280000000        14.180011344         6.348000000 C.ar      1 UNK      0.000000000
      263 C            13.508000000        13.471005672         6.348000000 C.ar      1 UNK      0.000000000
      264 C            13.508000000        16.306977312         6.348000000 C.ar      1 UNK      0.000000000
      265 C            14.736000000        15.598022688         6.348000000 C.ar      1 UNK      0.000000000
      266 C            14.736000000        14.180011344         6.348000000 C.ar      1 UNK      0.000000000
      267 C            15.964000000        13.471005672         6.348000000 C.ar      1 UNK      0.000000000
      268 C            15.964000000        16.306977312         6.348000000 C.ar      1 UNK      0.000000000
      269 C            17.192000000        15.598022688         6.348000000 C.ar      1 UNK      0.000000000
      270 C            17.192000000        14.180011344         6.348000000 C.ar      1 UNK      0.000000000
      271 C            18.420000000        13.471005672         6.348000000 C.ar      1 UNK      0.000000000
      272 C            18.420000000        16.306977312         6.348000000 C.ar      1 UNK      0.000000000
      273 C            19.648000000        15.598022688         6.348000000 C.ar      1 UNK      0.000000000
      274 C            19.648000000        14.180011344         6.348000000 C.ar      1 UNK      0.000000000
      275 C            20.876000000        13.471005672         6.348000000 C.ar      1 UNK      0.000000000
      276 C            20.876000000        16.306977312         6.348000000 C.ar      1 UNK      0.000000000
      277 C            22.104000000        15.598022688         6.348000000 C.ar      1 UNK      0.000000000
      278 C            22.104000000        14.180011344         6.348000000 C.ar      1 UNK      0.000000000
      279 C            23.332000000        13.471005672         6.348000000 C.ar      1 UNK      0.000000000
      280 C            23.332000000        16.306977312         6.348000000 C.ar      1 UNK      0.000000000
      281 C            24.560000000        15.598022688         6.348000000 C.ar      1 UNK      0.000000000
      282 C            24.560000000        14.180011344         6.348000000 C.ar      1 UNK      0.000000000
      283 C            25.788000000        13.471005672         6.348000000 C.ar      1 UNK      0.000000000
      284 C            25.788000000        16.306977312         6.348000000 C.ar      1 UNK      0.000000000
      285 C            27.016000000        15.598022688         6.348000000 C.ar      1 UNK      0.000000000
      286 C            27.016000000        14.180011344         6.348000000 C.ar      1 UNK      0.000000000
      287 C            28.244000000        13.471005672         6.348000000 C.ar      1 UNK      0.000000000
      288 C            28.244000000        16.306977312         6.348000000 C.ar      1 UNK      0.000000000
      289 C            29.472000000        15.598022688         6.348000000 C.ar      1 UNK      0.000000000
      290 C            29.472000000        14.180011344         6.348000000 C.ar      1 UNK      0.000000000
      291 C            30.700000000        13.471005672         6.348000000 C.ar      1 UNK      0.000000000
      292 C            30.700000000        16.306977312         6.348000000 C.ar      1 UNK      0.000000000
      293 C            31.928000000        15.598022688         6.348000000 C.ar      1 UNK      0.000000000
      294 C            31.928000000        14.180011344         6.348000000 C.ar      1 UNK      0.000000000
      295 C            33.156000000        13.471005672         6.348000000 C.ar      1 UNK      0.000000000
      296 C            33.156000000        16.306977312         6.348000000 C.ar      1 UNK      0.000000000
      297 C            34.384000000        15.598022688         6.348000000 C.ar      1 UNK      0.000000000
      298 C            34.384000000        14.180011344         6.348000000 C.ar      1 UNK      0.000000000
      299 C            35.612000000        13.471005672         6.348000000 C.ar      1 UNK      0.000000000
      300 C            35.612000000        16.306977312         6.348000000 C.ar      1 UNK      0.000000000
      301 C            36.840000000        15.598022688         6.348000000 C.ar      1 UNK      0.000000000
      302 C            36.840000000        14.180011344         6.348000000 C.ar      1 UNK      0.000000000
      303 C            38.068000000        13.471005672         6.348000000 C.ar      1 UNK      0.000000000
      304 C            38.068000000        16.306977312         6.348000000 C.ar      1 UNK      0.000000000
      305 C            39.296000000        15.598022688         6.348000000 C.ar      1 UNK      0.000000000
      306 C            39.296000000        14.180011344         6.348000000 C.ar      1 UNK      0.000000000
      307 C            40.524000000        13.471005672         6.348000000 C.ar      1 UNK      0.000000000
      308 C            40.524000000        16.306977312         6.348000000 C.ar      1 UNK      0.000000000
      309 C            41.752000000        15.598022688         6.348000000 C.ar      1 UNK      0.000000000
      310 C            41.752000000        14.180011344         6.348000000 C.ar      1 UNK      0.000000000
      311 C            42.980000000        13.471005672         6.348000000 C.ar      1 UNK      0.000000000
      312 C            42.980000000        16.306977312         6.348000000 C.ar      1 UNK      0.000000000
      313 C            44.208000000        15.598022688         6.348000000 C.ar      1 UNK      0.000000000
      314 C            44.208000000        14.180011344         6.348000000 C.ar      1 UNK      0.000000000
      315 C            45.436000000        13.471005672         6.348000000 C.ar      1 UNK      0.000000000
      316 C            45.436000000        16.306977312         6.348000000 C.ar      1 UNK      0.000000000
      317 C            46.664000000        15.598022688         6.348000000 C.ar      1 UNK      0.000000000
      318 C            46.664000000        14.180011344         6.348000000 C.ar      1 UNK      0.000000000
      319 C            47.892000000        13.471005672         6.348000000 C.ar      1 UNK      0.000000000
      320 C            47.892000000        16.306977312         6.348000000 C.ar      1 UNK      0.000000000
      321 C             0.000000000        19.852005672         6.348000000 C.ar      1 UNK      0.000000000
      322 C             0.000000000        18.433994328         6.348000000 C.ar      1 UNK      0.000000000
      323 C             1.228000000        17.724988656         6.348000000 C.ar      1 UNK      0.000000000
      324 C             1.228000000        20.561011344         6.348000000 C.ar      1 UNK      0.000000000
      325 C             2.456000000        19.852005672         6.348000000 C.ar      1 UNK      0.000000000
      326 C             2.456000000        18.433994328         6.348000000 C.ar      1 UNK      0.000000000
      327 C             3.684000000        17.724988656         6.348000000 C.ar      1 UNK      0.000000000
      328 C             3.684000000        20.561011344         6.348000000 C.ar      1 UNK      0.000000000
      329 C             4.912000000        19.852005672         6.348000000 C.ar      1 UNK      0.000000000
      330 C             4.912000000        18.433994328         6.348000000 C.ar      1 UNK      0.000000000
      331 C             6.140000000        17.724988656         6.348000000 C.ar      1 UNK      0.000000000
      332 C             6.140000000        20.561011344         6.348000000 C.ar      1 UNK      0.000000000
      333 C             7.368000000        19.852005672         6.348000000 C.ar      1 UNK      0.000000000
      334 C             7.368000000        18.433994328         6.348000000 C.ar      1 UNK      0.000000000
      335 C             8.596000000        17.724988656         6.348000000 C.ar      1 UNK      0.000000000
      336 C             8.596000000        20.561011344         6.348000000 C.ar      1 UNK      0.000000000
      337 C             9.824000000        19.852005672         6.348000000 C.ar      1 UNK      0.000000000
      338 C             9.824000000        18.433994328         6.348000000 C.ar      1 UNK      0.000000000
      339 C            11.052000000        17.724988656         6.348000000 C.ar      1 UNK      0.000000000
      340 C            11.052000000        20.561011344         6.348000000 C.ar      1 UNK      0.000000000
      341 C            12.280000000        19.852005672         6.348000000 C.ar      1 UNK      0.000000000
      342 C            12.280000000        18.433994328         6.348000000 C.ar      1 UNK      0.000000000
      343 C            13.508000000        17.724988656         6.348000000 C.ar      1 UNK      0.000000000
      344 C            13.508000000        20.561011344         6.348000000 C.ar      1 UNK      0.000000000
      345 C            14.736000000        19.852005672         6.348000000 C.ar      1 UNK      0.000000000
      346 C            14.736000000        18.433994328         6.348000000 C.ar      1 UNK      0.000000000
      347 C            15.964000000        17.724988656         6.348000000 C.ar      1 UNK      0.000000000
      348 C            15.964000000        20.561011344         6.348000000 C.ar      1 UNK      0.000000000
      349 C            17.192000000        19.852005672         6.348000000 C.ar      1 UNK      0.000000000
      350 C            17.192000000        18.433994328         6.348000000 C.ar      1 UNK      0.000000000
      351 C            18.420000000        17.724988656         6.348000000 C.ar      1 UNK      0.000000000
      352 C            18.420000000        20.561011344         6.348000000 C.ar      1 UNK      0.000000000
      353 C            19.648000000        19.852005672         6.348000000 C.ar      1 UNK      0.000000000
      354 C            19.648000000        18.433994328         6.348000000 C.ar      1 UNK      0.000000000
      355 C            20.876000000        17.724988656         6.348000000 C.ar      1 UNK      0.000000000
      356 C            20.876000000        20.561011344         6.348000000 C.ar      1 UNK      0.000000000
      357 C            22.104000000        19.852005672         6.348000000 C.ar      1 UNK      0.000000000
      358 C            22.104000000        18.433994328         6.348000000 C.ar      1 UNK      0.000000000
      359 C            23.332000000        17.724988656         6.348000000 C.ar      1 UNK      0.000000000
      360 C            23.332000000        20.561011344         6.348000000 C.ar      1 UNK      0.000000000
      361 C            24.560000000        19.852005672         6.348000000 C.ar      1 UNK      0.000000000
      362 C            24.560000000        18.433994328         6.348000000 C.ar      1 UNK      0.000000000
      363 C            25.788000000        17.724988656         6.348000000 C.ar      1 UNK      0.000000000
      364 C            25.788000000        20.561011344         6.348000000 C.ar      1 UNK      0.000000000
      365 C            27.016000000        19.852005672         6.348000000 C.ar      1 UNK      0.000000000
      366 C            27.016000000        18.433994328         6.348000000 C.ar      1 UNK      0.000000000
      367 C            28.244000000        17.724988656         6.348000000 C.ar      1 UNK      0.000000000
      368 C            28.244000000        20.561011344         6.348000000 C.ar      1 UNK      0.000000000
      369 C            29.472000000        19.852005672         6.348000000 C.ar      1 UNK      0.000000000
      370 C            29.472000000        18.433994328         6.348000000 C.ar      1 UNK      0.000000000
      371 C            30.700000000        17.724988656         6.348000000 C.ar      1 UNK      0.000000000
      372 C            30.700000000        20.561011344         6.348000000 C.ar      1 UNK      0.000000000
      373 C            31.928000000        19.852005672         6.348000000 C.ar      1 UNK      0.000000000
      374 C            31.928000000        18.433994328         6.348000000 C.ar      1 UNK      0.000000000
      375 C            33.156000000        17.724988656         6.348000000 C.ar      1 UNK      0.000000000
      376 C            33.156000000        20.561011344         6.348000000 C.ar      1 UNK      0.000000000
      377 C            34.384000000        19.852005672         6.348000000 C.ar      1 UNK      0.000000000
      378 C            34.384000000        18.433994328         6.348000000 C.ar      1 UNK      0.000000000
      379 C            35.612000000        17.724988656         6.348000000 C.ar      1 UNK      0.000000000
      380 C            35.612000000        20.561011344         6.348000000 C.ar      1 UNK      0.000000000
      381 C            36.840000000        19.852005672         6.348000000 C.ar      1 UNK      0.000000000
      382 C            36.840000000        18.433994328         6.348000000 C.ar      1 UNK      0.000000000
      383 C            38.068000000        17.724988656         6.348000000 C.ar      1 UNK      0.000000000
      384 C            38.068000000        20.561011344         6.348000000 C.ar      1 UNK      0.000000000
      385 C            39.296000000        19.852005672         6.348000000 C.ar      1 UNK      0.000000000
      386 C            39.296000000        18.433994328         6.348000000 C.ar      1 UNK      0.000000000
      387 C            40.524000000        17.724988656         6.348000000 C.ar      1 UNK      0.000000000
      388 C            40.524000000        20.561011344         6.348000000 C.ar      1 UNK      0.000000000
      389 C            41.752000000        19.852005672         6.348000000 C.ar      1 UNK      0.000000000
      390 C            41.752000000        18.433994328         6.348000000 C.ar      1 UNK      0.000000000
      391 C            42.980000000        17.724988656         6.348000000 C.ar      1 UNK      0.000000000
      392 C            42.980000000        20.561011344         6.348000000 C.ar      1 UNK      0.000000000
      393 C            44.208000000        19.852005672         6.348000000 C.ar      1 UNK      0.000000000
      394 C            44.208000000        18.433994328         6.348000000 C.ar      1 UNK      0.000000000
      395 C            45.436000000        17.724988656         6.348000000 C.ar      1 UNK      0.000000000
      396 C            45.436000000        20.561011344         6.348000000 C.ar      1 UNK      0.000000000
      397 C            46.664000000        19.852005672         6.348000000 C.ar      1 UNK      0.000000000
      398 C            46.664000000        18.433994328         6.348000000 C.ar      1 UNK      0.000000000
      399 C            47.892000000        17.724988656         6.348000000 C.ar      1 UNK      0.000000000
      400 C            47.892000000        20.561011344         6.348000000 C.ar      1 UNK      0.000000000
      401 C             0.000000000        24.105988656         6.348000000 C.ar      1 UNK      0.000000000
      402 C             0.000000000        22.687977312         6.348000000 C.ar      1 UNK      0.000000000
      403 C             1.228000000        21.979022688         6.348000000 C.ar      1 UNK      0.000000000
      404 C             1.228000000        24.814994328         6.348000000 C.ar      1 UNK      0.000000000
      405 C             2.456000000        24.105988656         6.348000000 C.ar      1 UNK      0.000000000
      406 C             2.456000000        22.687977312         6.348000000 C.ar      1 UNK      0.000000000
      407 C             3.684000000        21.979022688         6.348000000 C.ar      1 UNK      0.000000000
      408 C             3.684000000        24.814994328         6.348000000 C.ar      1 UNK      0.000000000
      409 C             4.912000000        24.105988656         6.348000000 C.ar      1 UNK      0.000000000
      410 C             4.912000000        22.687977312         6.348000000 C.ar      1 UNK      0.000000000
      411 C             6.140000000        21.979022688         6.348000000 C.ar      1 UNK      0.000000000
      412 C             6.140000000        24.814994328         6.348000000 C.ar      1 UNK      0.000000000
      413 C             7.368000000        24.105988656         6.348000000 C.ar      1 UNK      0.000000000
      414 C             7.368000000        22.687977312         6.348000000 C.ar      1 UNK      0.000000000
      415 C             8.596000000        21.979022688         6.348000000 C.ar      1 UNK      0.000000000
      416 C             8.596000000        24.814994328         6.348000000 C.ar      1 UNK      0.000000000
      417 C             9.824000000        24.105988656         6.348000000 C.ar      1 UNK      0.000000000
      418 C             9.824000000        22.687977312         6.348000000 C.ar      1 UNK      0.000000000
      419 C            11.052000000        21.979022688         6.348000000 C.ar      1 UNK      0.000000000
      420 C            11.052000000        24.814994328         6.348000000 C.ar      1 UNK      0.000000000
      421 C            12.280000000        24.105988656         6.348000000 C.ar      1 UNK      0.000000000
      422 C            12.280000000        22.687977312         6.348000000 C.ar      1 UNK      0.000000000
      423 C            13.508000000        21.979022688         6.348000000 C.ar      1 UNK      0.000000000
      424 C            13.508000000        24.814994328         6.348000000 C.ar      1 UNK      0.000000000
      425 C            14.736000000        24.105988656         6.348000000 C.ar      1 UNK      0.000000000
      426 C            14.736000000        22.687977312         6.348000000 C.ar      1 UNK      0.000000000
      427 C            15.964000000        21.979022688         6.348000000 C.ar      1 UNK      0.000000000
      428 C            15.964000000        24.814994328         6.348000000 C.ar      1 UNK      0.000000000
      429 C            17.192000000        24.105988656         6.348000000 C.ar      1 UNK      0.000000000
      430 C            17.192000000        22.687977312         6.348000000 C.ar      1 UNK      0.000000000
      431 C            18.420000000        21.979022688         6.348000000 C.ar      1 UNK      0.000000000
      432 C            18.420000000        24.814994328         6.348000000 C.ar      1 UNK      0.000000000
      433 C            19.648000000        24.105988656         6.348000000 C.ar      1 UNK      0.000000000
      434 C            19.648000000        22.687977312         6.348000000 C.ar      1 UNK      0.000000000
      435 C            20.876000000        21.979022688         6.348000000 C.ar      1 UNK      0.000000000
      436 C            20.876000000        24.814994328         6.348000000 C.ar      1 UNK      0.000000000
      437 C            22.104000000        24.105988656         6.348000000 C.ar      1 UNK      0.000000000
      438 C            22.104000000        22.687977312         6.348000000 C.ar      1 UNK      0.000000000
      439 C            23.332000000        21.979022688         6.348000000 C.ar      1 UNK      0.000000000
      440 C            23.332000000        24.814994328         6.348000000 C.ar      1 UNK      0.000000000
      441 C            24.560000000        24.105988656         6.348000000 C.ar      1 UNK      0.000000000
      442 C            24.560000000        22.687977312         6.348000000 C.ar      1 UNK      0.000000000
      443 C            25.788000000        21.979022688         6.348000000 C.ar      1 UNK      0.000000000
      444 C            25.788000000        24.814994328         6.348000000 C.ar      1 UNK      0.000000000
      445 C            27.016000000        24.105988656         6.348000000 C.ar      1 UNK      0.000000000
      446 C            27.016000000        22.687977312         6.348000000 C.ar      1 UNK      0.000000000
      447 C            28.244000000        21.979022688         6.348000000 C.ar      1 UNK      0.000000000
      448 C            28.244000000        24.814994328         6.348000000 C.ar      1 UNK      0.000000000
      449 C            29.472000000        24.105988656         6.348000000 C.ar      1 UNK      0.000000000
      450 C            29.472000000        22.687977312         6.348000000 C.ar      1 UNK      0.000000000
      451 C            30.700000000        21.979022688         6.348000000 C.ar      1 UNK      0.000000000
      452 C            30.700000000        24.814994328         6.348000000 C.ar      1 UNK      0.000000000
      453 C            31.928000000        24.105988656         6.348000000 C.ar      1 UNK      0.000000000
      454 C            31.928000000        22.687977312         6.348000000 C.ar      1 UNK      0.000000000
      455 C            33.156000000        21.979022688         6.348000000 C.ar      1 UNK      0.000000000
      456 C            33.156000000        24.814994328         6.348000000 C.ar      1 UNK      0.000000000
      457 C            34.384000000        24.105988656         6.348000000 C.ar      1 UNK      0.000000000
      458 C            34.384000000        22.687977312         6.348000000 C.ar      1 UNK      0.000000000
      459 C            35.612000000        21.979022688         6.348000000 C.ar      1 UNK      0.000000000
      460 C            35.612000000        24.814994328         6.348000000 C.ar      1 UNK      0.000000000
      461 C            36.840000000        24.105988656         6.348000000 C.ar      1 UNK      0.000000000
      462 C            36.840000000        22.687977312         6.348000000 C.ar      1 UNK      0.000000000
      463 C            38.068000000        21.979022688         6.348000000 C.ar      1 UNK      0.000000000
      464 C            38.068000000        24.814994328         6.348000000 C.ar      1 UNK      0.000000000
      465 C            39.296000000        24.105988656         6.348000000 C.ar      1 UNK      0.000000000
      466 C            39.296000000        22.687977312         6.348000000 C.ar      1 UNK      0.000000000
      467 C            40.524000000        21.979022688         6.348000000 C.ar      1 UNK      0.000000000
      468 C            40.524000000        24.814994328         6.348000000 C.ar      1 UNK      0.000000000
      469 C            41.752000000        24.105988656         6.348000000 C.ar      1 UNK      0.000000000
      470 C            41.752000000        22.687977312         6.348000000 C.ar      1 UNK      0.000000000
      471 C            42.980000000        21.979022688         6.348000000 C.ar      1 UNK      0.000000000
      472 C            42.980000000        24.814994328         6.348000000 C.ar      1 UNK      0.000000000
      473 C            44.208000000        24.105988656         6.348000000 C.ar      1 UNK      0.000000000
      474 C            44.208000000        22.687977312         6.348000000 C.ar      1 UNK      0.000000000
      475 C            45.436000000        21.979022688         6.348000000 C.ar      1 UNK      0.000000000
      476 C            45.436000000        24.814994328         6.348000000 C.ar      1 UNK      0.000000000
      477 C            46.664000000        24.105988656         6.348000000 C.ar      1 UNK      0.000000000
      478 C            46.664000000        22.687977312         6.348000000 C.ar      1 UNK      0.000000000
      479 C            47.892000000        21.979022688         6.348000000 C.ar      1 UNK      0.000000000
      480 C            47.892000000        24.814994328         6.348000000 C.ar      1 UNK      0.000000000
      481 C             0.000000000        28.360022688         6.348000000 C.ar      1 UNK      0.000000000
      482 C             0.000000000        26.942011344         6.348000000 C.ar      1 UNK      0.000000000
      483 C             1.228000000        26.233005672         6.348000000 C.ar      1 UNK      0.000000000
      484 C             1.228000000        29.068977312         6.348000000 C.ar      1 UNK      0.000000000
      485 C             2.456000000        28.360022688         6.348000000 C.ar      1 UNK      0.000000000
      486 C             2.456000000        26.942011344         6.348000000 C.ar      1 UNK      0.000000000
      487 C             3.684000000        26.233005672         6.348000000 C.ar      1 UNK      0.000000000
      488 C             3.684000000        29.068977312         6.348000000 C.ar      1 UNK      0.000000000
      489 C             4.912000000        28.360022688         6.348000000 C.ar      1 UNK      0.000000000
      490 C             4.912000000        26.942011344         6.348000000 C.ar      1 UNK      0.000000000
      491 C             6.140000000        26.233005672         6.348000000 C.ar      1 UNK      0.000000000
      492 C             6.140000000        29.068977312         6.348000000 C.ar      1 UNK      0.000000000
      493 C             7.368000000        28.360022688         6.348000000 C.ar      1 UNK      0.000000000
      494 C             7.368000000        26.942011344         6.348000000 C.ar      1 UNK      0.000000000
      495 C             8.596000000        26.233005672         6.348000000 C.ar      1 UNK      0.000000000
      496 C             8.596000000        29.068977312         6.348000000 C.ar      1 UNK      0.000000000
      497 C             9.824000000        28.360022688         6.348000000 C.ar      1 UNK      0.000000000
      498 C             9.824000000        26.942011344         6.348000000 C.ar      1 UNK      0.000000000
      499 C            11.052000000        26.233005672         6.348000000 C.ar      1 UNK      0.000000000
      500 C            11.052000000        29.068977312         6.348000000 C.ar      1 UNK      0.000000000
      501 C            12.280000000        28.360022688         6.348000000 C.ar      1 UNK      0.000000000
      502 C            12.280000000        26.942011344         6.348000000 C.ar      1 UNK      0.000000000
      503 C            13.508000000        26.233005672         6.348000000 C.ar      1 UNK      0.000000000
      504 C            13.508000000        29.068977312         6.348000000 C.ar      1 UNK      0.000000000
      505 C            14.736000000        28.360022688         6.348000000 C.ar      1 UNK      0.000000000
      506 C            14.736000000        26.942011344         6.348000000 C.ar      1 UNK      0.000000000
      507 C            15.964000000        26.233005672         6.348000000 C.ar      1 UNK      0.000000000
      508 C            15.964000000        29.068977312         6.348000000 C.ar      1 UNK      0.000000000
      509 C            17.192000000        28.360022688         6.348000000 C.ar      1 UNK      0.000000000
      510 C            17.192000000        26.942011344         6.348000000 C.ar      1 UNK      0.000000000
      511 C            18.420000000        26.233005672         6.348000000 C.ar      1 UNK      0.000000000
      512 C            18.420000000        29.068977312         6.348000000 C.ar      1 UNK      0.000000000
      513 C            19.648000000        28.360022688         6.348000000 C.ar      1 UNK      0.000000000
      514 C            19.648000000        26.942011344         6.348000000 C.ar      1 UNK      0.000000000
      515 C            20.876000000        26.233005672         6.348000000 C.ar      1 UNK      0.000000000
      516 C            20.876000000        29.068977312         6.348000000 C.ar      1 UNK      0.000000000
      517 C            22.104000000        28.360022688         6.348000000 C.ar      1 UNK      0.000000000
      518 C            22.104000000        26.942011344         6.348000000 C.ar      1 UNK      0.000000000
      519 C            23.332000000        26.233005672         6.348000000 C.ar      1 UNK      0.000000000
      520 C            23.332000000        29.068977312         6.348000000 C.ar      1 UNK      0.000000000
      521 C            24.560000000        28.360022688         6.348000000 C.ar      1 UNK      0.000000000
      522 C            24.560000000        26.942011344         6.348000000 C.ar      1 UNK      0.000000000
      523 C            25.788000000        26.233005672         6.348000000 C.ar      1 UNK      0.000000000
      524 C            25.788000000        29.068977312         6.348000000 C.ar      1 UNK      0.000000000
      525 C            27.016000000        28.360022688         6.348000000 C.ar      1 UNK      0.000000000
      526 C            27.016000000        26.942011344         6.348000000 C.ar      1 UNK      0.000000000
      527 C            28.244000000        26.233005672         6.348000000 C.ar      1 UNK      0.000000000
      528 C            28.244000000        29.068977312         6.348000000 C.ar      1 UNK      0.000000000
      529 C            29.472000000        28.360022688         6.348000000 C.ar      1 UNK      0.000000000
      530 C            29.472000000        26.942011344         6.348000000 C.ar      1 UNK      0.000000000
      531 C            30.700000000        26.233005672         6.348000000 C.ar      1 UNK      0.000000000
      532 C            30.700000000        29.068977312         6.348000000 C.ar      1 UNK      0.000000000
      533 C            31.928000000        28.360022688         6.348000000 C.ar      1 UNK      0.000000000
      534 C            31.928000000        26.942011344         6.348000000 C.ar      1 UNK      0.000000000
      535 C            33.156000000        26.233005672         6.348000000 C.ar      1 UNK      0.000000000
      536 C            33.156000000        29.068977312         6.348000000 C.ar      1 UNK      0.000000000
      537 C            34.384000000        28.360022688         6.348000000 C.ar      1 UNK      0.000000000
      538 C            34.384000000        26.942011344         6.348000000 C.ar      1 UNK      0.000000000
      539 C            35.612000000        26.233005672         6.348000000 C.ar      1 UNK      0.000000000
      540 C            35.612000000        29.068977312         6.348000000 C.ar      1 UNK      0.000000000
      541 C            36.840000000        28.360022688         6.348000000 C.ar      1 UNK      0.000000000
      542 C            36.840000000        26.942011344         6.348000000 C.ar      1 UNK      0.000000000
      543 C            38.068000000        26.233005672         6.348000000 C.ar      1 UNK      0.000000000
      544 C            38.068000000        29.068977312         6.348000000 C.ar      1 UNK      0.000000000
      545 C            39.296000000        28.360022688         6.348000000 C.ar      1 UNK      0.000000000
      546 C            39.296000000        26.942011344         6.348000000 C.ar      1 UNK      0.000000000
      547 C            40.524000000        26.233005672         6.348000000 C.ar      1 UNK      0.000000000
      548 C            40.524000000        29.068977312         6.348000000 C.ar      1 UNK      0.000000000
      549 C            41.752000000        28.360022688         6.348000000 C.ar      1 UNK      0.000000000
      550 C            41.752000000        26.942011344         6.348000000 C.ar      1 UNK      0.000000000
      551 C            42.980000000        26.233005672         6.348000000 C.ar      1 UNK      0.000000000
      552 C            42.980000000        29.068977312         6.348000000 C.ar      1 UNK      0.000000000
      553 C            44.208000000        28.360022688         6.348000000 C.ar      1 UNK      0.000000000
      554 C            44.208000000        26.942011344         6.348000000 C.ar      1 UNK      0.000000000
      555 C            45.436000000        26.233005672         6.348000000 C.ar      1 UNK      0.000000000
      556 C            45.436000000        29.068977312         6.348000000 C.ar      1 UNK      0.000000000
      557 C            46.664000000        28.360022688         6.348000000 C.ar      1 UNK      0.000000000
      558 C            46.664000000        26.942011344         6.348000000 C.ar      1 UNK      0.000000000
      559 C            47.892000000        26.233005672         6.348000000 C.ar      1 UNK      0.000000000
      560 C            47.892000000        29.068977312         6.348000000 C.ar      1 UNK      0.000000000
      561 C             0.000000000        32.614005672         6.348000000 C.ar      1 UNK      0.000000000
      562 C             0.000000000        31.195994328         6.348000000 C.ar      1 UNK      0.000000000
      563 C             1.228000000        30.486988656         6.348000000 C.ar      1 UNK      0.000000000
      564 C             1.228000000        33.323011344         6.348000000 C.ar      1 UNK      0.000000000
      565 C             2.456000000        32.614005672         6.348000000 C.ar      1 UNK      0.000000000
      566 C             2.456000000        31.195994328         6.348000000 C.ar      1 UNK      0.000000000
      567 C             3.684000000        30.486988656         6.348000000 C.ar      1 UNK      0.000000000
      568 C             3.684000000        33.323011344         6.348000000 C.ar      1 UNK      0.000000000
      569 C             4.912000000        32.614005672         6.348000000 C.ar      1 UNK      0.000000000
      570 C             4.912000000        31.195994328         6.348000000 C.ar      1 UNK      0.000000000
      571 C             6.140000000        30.486988656         6.348000000 C.ar      1 UNK      0.000000000
      572 C             6.140000000        33.323011344         6.348000000 C.ar      1 UNK      0.000000000
      573 C             7.368000000        32.614005672         6.348000000 C.ar      1 UNK      0.000000000
      574 C             7.368000000        31.195994328         6.348000000 C.ar      1 UNK      0.000000000
      575 C             8.596000000        30.486988656         6.348000000 C.ar      1 UNK      0.000000000
      576 C             8.596000000        33.323011344         6.348000000 C.ar      1 UNK      0.000000000
      577 C             9.824000000        32.614005672         6.348000000 C.ar      1 UNK      0.000000000
      578 C             9.824000000        31.195994328         6.348000000 C.ar      1 UNK      0.000000000
      579 C            11.052000000        30.486988656         6.348000000 C.ar      1 UNK      0.000000000
      580 C            11.052000000        33.323011344         6.348000000 C.ar      1 UNK      0.000000000
      581 C            12.280000000        32.614005672         6.348000000 C.ar      1 UNK      0.000000000
      582 C            12.280000000        31.195994328         6.348000000 C.ar      1 UNK      0.000000000
      583 C            13.508000000        30.486988656         6.348000000 C.ar      1 UNK      0.000000000
      584 C            13.508000000        33.323011344         6.348000000 C.ar      1 UNK      0.000000000
      585 C            14.736000000        32.614005672         6.348000000 C.ar      1 UNK      0.000000000
      586 C            14.736000000        31.195994328         6.348000000 C.ar      1 UNK      0.000000000
      587 C            15.964000000        30.486988656         6.348000000 C.ar      1 UNK      0.000000000
      588 C            15.964000000        33.323011344         6.348000000 C.ar      1 UNK      0.000000000
      589 C            17.192000000        32.614005672         6.348000000 C.ar      1 UNK      0.000000000
      590 C            17.192000000        31.195994328         6.348000000 C.ar      1 UNK      0.000000000
      591 C            18.420000000        30.486988656         6.348000000 C.ar      1 UNK      0.000000000
      592 C            18.420000000        33.323011344         6.348000000 C.ar      1 UNK      0.000000000
      593 C            19.648000000        32.614005672         6.348000000 C.ar      1 UNK      0.000000000
      594 C            19.648000000        31.195994328         6.348000000 C.ar      1 UNK      0.000000000
      595 C            20.876000000        30.486988656         6.348000000 C.ar      1 UNK      0.000000000
      596 C            20.876000000        33.323011344         6.348000000 C.ar      1 UNK      0.000000000
      597 C            22.104000000        32.614005672         6.348000000 C.ar      1 UNK      0.000000000
      598 C            22.104000000        31.195994328         6.348000000 C.ar      1 UNK      0.000000000
      599 C            23.332000000        30.486988656         6.348000000 C.ar      1 UNK      0.000000000
      600 C            23.332000000        33.323011344         6.348000000 C.ar      1 UNK      0.000000000
      601 C            24.560000000        32.614005672         6.348000000 C.ar      1 UNK      0.000000000
      602 C            24.560000000        31.195994328         6.348000000 C.ar      1 UNK      0.000000000
      603 C            25.788000000        30.486988656         6.348000000 C.ar      1 UNK      0.000000000
      604 C            25.788000000        33.323011344         6.348000000 C.ar      1 UNK      0.000000000
      605 C            27.016000000        32.614005672         6.348000000 C.ar      1 UNK      0.000000000
      606 C            27.016000000        31.195994328         6.348000000 C.ar      1 UNK      0.000000000
      607 C            28.244000000        30.486988656         6.348000000 C.ar      1 UNK      0.000000000
      608 C            28.244000000        33.323011344         6.348000000 C.ar      1 UNK      0.000000000
      609 C            29.472000000        32.614005672         6.348000000 C.ar      1 UNK      0.000000000
      610 C            29.472000000        31.195994328         6.348000000 C.ar      1 UNK      0.000000000
      611 C            30.700000000        30.486988656         6.348000000 C.ar      1 UNK      0.000000000
      612 C            30.700000000        33.323011344         6.348000000 C.ar      1 UNK      0.000000000
      613 C            31.928000000        32.614005672         6.348000000 C.ar      1 UNK      0.000000000
      614 C            31.928000000        31.195994328         6.348000000 C.ar      1 UNK      0.000000000
      615 C            33.156000000        30.486988656         6.348000000 C.ar      1 UNK      0.000000000
      616 C            33.156000000        33.323011344         6.348000000 C.ar      1 UNK      0.000000000
      617 C            34.384000000        32.614005672         6.348000000 C.ar      1 UNK      0.000000000
      618 C            34.384000000        31.195994328         6.348000000 C.ar      1 UNK      0.000000000
      619 C            35.612000000        30.486988656         6.348000000 C.ar      1 UNK      0.000000000
      620 C            35.612000000        33.323011344         6.348000000 C.ar      1 UNK      0.000000000
      621 C            36.840000000        32.614005672         6.348000000 C.ar      1 UNK      0.000000000
      622 C            36.840000000        31.195994328         6.348000000 C.ar      1 UNK      0.000000000
      623 C            38.068000000        30.486988656         6.348000000 C.ar      1 UNK      0.000000000
      624 C            38.068000000        33.323011344         6.348000000 C.ar      1 UNK      0.000000000
      625 C            39.296000000        32.614005672         6.348000000 C.ar      1 UNK      0.000000000
      626 C            39.296000000        31.195994328         6.348000000 C.ar      1 UNK      0.000000000
      627 C            40.524000000        30.486988656         6.348000000 C.ar      1 UNK      0.000000000
      628 C            40.524000000        33.323011344         6.348000000 C.ar      1 UNK      0.000000000
      629 C            41.752000000        32.614005672         6.348000000 C.ar      1 UNK      0.000000000
      630 C            41.752000000        31.195994328         6.348000000 C.ar      1 UNK      0.000000000
      631 C            42.980000000        30.486988656         6.348000000 C.ar      1 UNK      0.000000000
      632 C            42.980000000        33.323011344         6.348000000 C.ar      1 UNK      0.000000000
      633 C            44.208000000        32.614005672         6.348000000 C.ar      1 UNK      0.000000000
      634 C            44.208000000        31.195994328         6.348000000 C.ar      1 UNK      0.000000000
      635 C            45.436000000        30.486988656         6.348000000 C.ar      1 UNK      0.000000000
      636 C            45.436000000        33.323011344         6.348000000 C.ar      1 UNK      0.000000000
      637 C            46.664000000        32.614005672         6.348000000 C.ar      1 UNK      0.000000000
      638 C            46.664000000        31.195994328         6.348000000 C.ar      1 UNK      0.000000000
      639 C            47.892000000        30.486988656         6.348000000 C.ar      1 UNK      0.000000000
      640 C            47.892000000        33.323011344         6.348000000 C.ar      1 UNK      0.000000000
      641 C             0.000000000        36.867988656         6.348000000 C.ar      1 UNK      0.000000000
      642 C             0.000000000        35.449977312         6.348000000 C.ar      1 UNK      0.000000000
      643 C             1.228000000        34.741022688         6.348000000 C.ar      1 UNK      0.000000000
      644 C             1.228000000        37.576994328         6.348000000 C.ar      1 UNK      0.000000000
      645 C             2.456000000        36.867988656         6.348000000 C.ar      1 UNK      0.000000000
      646 C             2.456000000        35.449977312         6.348000000 C.ar      1 UNK      0.000000000
      647 C             3.684000000        34.741022688         6.348000000 C.ar      1 UNK      0.000000000
      648 C             3.684000000        37.576994328         6.348000000 C.ar      1 UNK      0.000000000
      649 C             4.912000000        36.867988656         6.348000000 C.ar      1 UNK      0.000000000
      650 C             4.912000000        35.449977312         6.348000000 C.ar      1 UNK      0.000000000
      651 C             6.140000000        34.741022688         6.348000000 C.ar      1 UNK      0.000000000
      652 C             6.140000000        37.576994328         6.348000000 C.ar      1 UNK      0.000000000
      653 C             7.368000000        36.867988656         6.348000000 C.ar      1 UNK      0.000000000
      654 C             7.368000000        35.449977312         6.348000000 C.ar      1 UNK      0.000000000
      655 C             8.596000000        34.741022688         6.348000000 C.ar      1 UNK      0.000000000
      656 C             8.596000000        37.576994328         6.348000000 C.ar      1 UNK      0.000000000
      657 C             9.824000000        36.867988656         6.348000000 C.ar      1 UNK      0.000000000
      658 C             9.824000000        35.449977312         6.348000000 C.ar      1 UNK      0.000000000
      659 C            11.052000000        34.741022688         6.348000000 C.ar      1 UNK      0.000000000
      660 C            11.052000000        37.576994328         6.348000000 C.ar      1 UNK      0.000000000
      661 C            12.280000000        36.867988656         6.348000000 C.ar      1 UNK      0.000000000
      662 C            12.280000000        35.449977312         6.348000000 C.ar      1 UNK      0.000000000
      663 C            13.508000000        34.741022688         6.348000000 C.ar      1 UNK      0.000000000
      664 C            13.508000000        37.576994328         6.348000000 C.ar      1 UNK      0.000000000
      665 C            14.736000000        36.867988656         6.348000000 C.ar      1 UNK      0.000000000
      666 C            14.736000000        35.449977312         6.348000000 C.ar      1 UNK      0.000000000
      667 C            15.964000000        34.741022688         6.348000000 C.ar      1 UNK      0.000000000
      668 C            15.964000000        37.576994328         6.348000000 C.ar      1 UNK      0.000000000
      669 C            17.192000000        36.867988656         6.348000000 C.ar      1 UNK      0.000000000
      670 C            17.192000000        35.449977312         6.348000000 C.ar      1 UNK      0.000000000
      671 C            18.420000000        34.741022688         6.348000000 C.ar      1 UNK      0.000000000
      672 C            18.420000000        37.576994328         6.348000000 C.ar      1 UNK      0.000000000
      673 C            19.648000000        36.867988656         6.348000000 C.ar      1 UNK      0.000000000
      674 C            19.648000000        35.449977312         6.348000000 C.ar      1 UNK      0.000000000
      675 C            20.876000000        34.741022688         6.348000000 C.ar      1 UNK      0.000000000
      676 C            20.876000000        37.576994328         6.348000000 C.ar      1 UNK      0.000000000
      677 C            22.104000000        36.867988656         6.348000000 C.ar      1 UNK      0.000000000
      678 C            22.104000000        35.449977312         6.348000000 C.ar      1 UNK      0.000000000
      679 C            23.332000000        34.741022688         6.348000000 C.ar      1 UNK      0.000000000
      680 C            23.332000000        37.576994328         6.348000000 C.ar      1 UNK      0.000000000
      681 C            24.560000000        36.867988656         6.348000000 C.ar      1 UNK      0.000000000
      682 C            24.560000000        35.449977312         6.348000000 C.ar      1 UNK      0.000000000
      683 C            25.788000000        34.741022688         6.348000000 C.ar      1 UNK      0.000000000
      684 C            25.788000000        37.576994328         6.348000000 C.ar      1 UNK      0.000000000
      685 C            27.016000000        36.867988656         6.348000000 C.ar      1 UNK      0.000000000
      686 C            27.016000000        35.449977312         6.348000000 C.ar      1 UNK      0.000000000
      687 C            28.244000000        34.741022688         6.348000000 C.ar      1 UNK      0.000000000
      688 C            28.244000000        37.576994328         6.348000000 C.ar      1 UNK      0.000000000
      689 C            29.472000000        36.867988656         6.348000000 C.ar      1 UNK      0.000000000
      690 C            29.472000000        35.449977312         6.348000000 C.ar      1 UNK      0.000000000
      691 C            30.700000000        34.741022688         6.348000000 C.ar      1 UNK      0.000000000
      692 C            30.700000000        37.576994328         6.348000000 C.ar      1 UNK      0.000000000
      693 C            31.928000000        36.867988656         6.348000000 C.ar      1 UNK      0.000000000
      694 C            31.928000000        35.449977312         6.348000000 C.ar      1 UNK      0.000000000
      695 C            33.156000000        34.741022688         6.348000000 C.ar      1 UNK      0.000000000
      696 C            33.156000000        37.576994328         6.348000000 C.ar      1 UNK      0.000000000
      697 C            34.384000000        36.867988656         6.348000000 C.ar      1 UNK      0.000000000
      698 C            34.384000000        35.449977312         6.348000000 C.ar      1 UNK      0.000000000
      699 C            35.612000000        34.741022688         6.348000000 C.ar      1 UNK      0.000000000
      700 C            35.612000000        37.576994328         6.348000000 C.ar      1 UNK      0.000000000
      701 C            36.840000000        36.867988656         6.348000000 C.ar      1 UNK      0.000000000
      702 C            36.840000000        35.449977312         6.348000000 C.ar      1 UNK      0.000000000
      703 C            38.068000000        34.741022688         6.348000000 C.ar      1 UNK      0.000000000
      704 C            38.068000000        37.576994328         6.348000000 C.ar      1 UNK      0.000000000
      705 C            39.296000000        36.867988656         6.348000000 C.ar      1 UNK      0.000000000
      706 C            39.296000000        35.449977312         6.348000000 C.ar      1 UNK      0.000000000
      707 C            40.524000000        34.741022688         6.348000000 C.ar      1 UNK      0.000000000
      708 C            40.524000000        37.576994328         6.348000000 C.ar      1 UNK      0.000000000
      709 C            41.752000000        36.867988656         6.348000000 C.ar      1 UNK      0.000000000
      710 C            41.752000000        35.449977312         6.348000000 C.ar      1 UNK      0.000000000
      711 C            42.980000000        34.741022688         6.348000000 C.ar      1 UNK      0.000000000
      712 C            42.980000000        37.576994328         6.348000000 C.ar      1 UNK      0.000000000
      713 C            44.208000000        36.867988656         6.348000000 C.ar      1 UNK      0.000000000
      714 C            44.208000000        35.449977312         6.348000000 C.ar      1 UNK      0.000000000
      715 C            45.436000000        34.741022688         6.348000000 C.ar      1 UNK      0.000000000
      716 C            45.436000000        37.576994328         6.348000000 C.ar      1 UNK      0.000000000
      717 C            46.664000000        36.867988656         6.348000000 C.ar      1 UNK      0.000000000
      718 C            46.664000000        35.449977312         6.348000000 C.ar      1 UNK      0.000000000
      719 C            47.892000000        34.741022688         6.348000000 C.ar      1 UNK      0.000000000
      720 C            47.892000000        37.576994328         6.348000000 C.ar      1 UNK      0.000000000
      721 C             0.000000000        41.122022688         6.348000000 C.ar      1 UNK      0.000000000
      722 C             0.000000000        39.704011344         6.348000000 C.ar      1 UNK      0.000000000
      723 C             1.228000000        38.995005672         6.348000000 C.ar      1 UNK      0.000000000
      724 C             1.228000000        41.830977312         6.348000000 C.ar      1 UNK      0.000000000
      725 C             2.456000000        41.122022688         6.348000000 C.ar      1 UNK      0.000000000
      726 C             2.456000000        39.704011344         6.348000000 C.ar      1 UNK      0.000000000
      727 C             3.684000000        38.995005672         6.348000000 C.ar      1 UNK      0.000000000
      728 C             3.684000000        41.830977312         6.348000000 C.ar      1 UNK      0.000000000
      729 C             4.912000000        41.122022688         6.348000000 C.ar      1 UNK      0.000000000
      730 C             4.912000000        39.704011344         6.348000000 C.ar      1 UNK      0.000000000
      731 C             6.140000000        38.995005672         6.348000000 C.ar      1 UNK      0.000000000
      732 C             6.140000000        41.830977312         6.348000000 C.ar      1 UNK      0.000000000
      733 C             7.368000000        41.122022688         6.348000000 C.ar      1 UNK      0.000000000
      734 C             7.368000000        39.704011344         6.348000000 C.ar      1 UNK      0.000000000
      735 C             8.596000000        38.995005672         6.348000000 C.ar      1 UNK      0.000000000
      736 C             8.596000000        41.830977312         6.348000000 C.ar      1 UNK      0.000000000
      737 C             9.824000000        41.122022688         6.348000000 C.ar      1 UNK      0.000000000
      738 C             9.824000000        39.704011344         6.348000000 C.ar      1 UNK      0.000000000
      739 C            11.052000000        38.995005672         6.348000000 C.ar      1 UNK      0.000000000
      740 C            11.052000000        41.830977312         6.348000000 C.ar      1 UNK      0.000000000
      741 C            12.280000000        41.122022688         6.348000000 C.ar      1 UNK      0.000000000
      742 C            12.280000000        39.704011344         6.348000000 C.ar      1 UNK      0.000000000
      743 C            13.508000000        38.995005672         6.348000000 C.ar      1 UNK      0.000000000
      744 C            13.508000000        41.830977312         6.348000000 C.ar      1 UNK      0.000000000
      745 C            14.736000000        41.122022688         6.348000000 C.ar      1 UNK      0.000000000
      746 C            14.736000000        39.704011344         6.348000000 C.ar      1 UNK      0.000000000
      747 C            15.964000000        38.995005672         6.348000000 C.ar      1 UNK      0.000000000
      748 C            15.964000000        41.830977312         6.348000000 C.ar      1 UNK      0.000000000
      749 C            17.192000000        41.122022688         6.348000000 C.ar      1 UNK      0.000000000
      750 C            17.192000000        39.704011344         6.348000000 C.ar      1 UNK      0.000000000
      751 C            18.420000000        38.995005672         6.348000000 C.ar      1 UNK      0.000000000
      752 C            18.420000000        41.830977312         6.348000000 C.ar      1 UNK      0.000000000
      753 C            19.648000000        41.122022688         6.348000000 C.ar      1 UNK      0.000000000
      754 C            19.648000000        39.704011344         6.348000000 C.ar      1 UNK      0.000000000
      755 C            20.876000000        38.995005672         6.348000000 C.ar      1 UNK      0.000000000
      756 C            20.876000000        41.830977312         6.348000000 C.ar      1 UNK      0.000000000
      757 C            22.104000000        41.122022688         6.348000000 C.ar      1 UNK      0.000000000
      758 C            22.104000000        39.704011344         6.348000000 C.ar      1 UNK      0.000000000
      759 C            23.332000000        38.995005672         6.348000000 C.ar      1 UNK      0.000000000
      760 C            23.332000000        41.830977312         6.348000000 C.ar      1 UNK      0.000000000
      761 C            24.560000000        41.122022688         6.348000000 C.ar      1 UNK      0.000000000
      762 C            24.560000000        39.704011344         6.348000000 C.ar      1 UNK      0.000000000
      763 C            25.788000000        38.995005672         6.348000000 C.ar      1 UNK      0.000000000
      764 C            25.788000000        41.830977312         6.348000000 C.ar      1 UNK      0.000000000
      765 C            27.016000000        41.122022688         6.348000000 C.ar      1 UNK      0.000000000
      766 C            27.016000000        39.704011344         6.348000000 C.ar      1 UNK      0.000000000
      767 C            28.244000000        38.995005672         6.348000000 C.ar      1 UNK      0.000000000
      768 C            28.244000000        41.830977312         6.348000000 C.ar      1 UNK      0.000000000
      769 C            29.472000000        41.122022688         6.348000000 C.ar      1 UNK      0.000000000
      770 C            29.472000000        39.704011344         6.348000000 C.ar      1 UNK      0.000000000
      771 C            30.700000000        38.995005672         6.348000000 C.ar      1 UNK      0.000000000
      772 C            30.700000000        41.830977312         6.348000000 C.ar      1 UNK      0.000000000
      773 C            31.928000000        41.122022688         6.348000000 C.ar      1 UNK      0.000000000
      774 C            31.928000000        39.704011344         6.348000000 C.ar      1 UNK      0.000000000
      775 C            33.156000000        38.995005672         6.348000000 C.ar      1 UNK      0.000000000
      776 C            33.156000000        41.830977312         6.348000000 C.ar      1 UNK      0.000000000
      777 C            34.384000000        41.122022688         6.348000000 C.ar      1 UNK      0.000000000
      778 C            34.384000000        39.704011344         6.348000000 C.ar      1 UNK      0.000000000
      779 C            35.612000000        38.995005672         6.348000000 C.ar      1 UNK      0.000000000
      780 C            35.612000000        41.830977312         6.348000000 C.ar      1 UNK      0.000000000
      781 C            36.840000000        41.122022688         6.348000000 C.ar      1 UNK      0.000000000
      782 C            36.840000000        39.704011344         6.348000000 C.ar      1 UNK      0.000000000
      783 C            38.068000000        38.995005672         6.348000000 C.ar      1 UNK      0.000000000
      784 C            38.068000000        41.830977312         6.348000000 C.ar      1 UNK      0.000000000
      785 C            39.296000000        41.122022688         6.348000000 C.ar      1 UNK      0.000000000
      786 C            39.296000000        39.704011344         6.348000000 C.ar      1 UNK      0.000000000
      787 C            40.524000000        38.995005672         6.348000000 C.ar      1 UNK      0.000000000
      788 C            40.524000000        41.830977312         6.348000000 C.ar      1 UNK      0.000000000
      789 C            41.752000000        41.122022688         6.348000000 C.ar      1 UNK      0.000000000
      790 C            41.752000000        39.704011344         6.348000000 C.ar      1 UNK      0.000000000
      791 C            42.980000000        38.995005672         6.348000000 C.ar      1 UNK      0.000000000
      792 C            42.980000000        41.830977312         6.348000000 C.ar      1 UNK      0.000000000
      793 C            44.208000000        41.122022688         6.348000000 C.ar      1 UNK      0.000000000
      794 C            44.208000000        39.704011344         6.348000000 C.ar      1 UNK      0.000000000
      795 C            45.436000000        38.995005672         6.348000000 C.ar      1 UNK      0.000000000
      796 C            45.436000000        41.830977312         6.348000000 C.ar      1 UNK      0.000000000
      797 C            46.664000000        41.122022688         6.348000000 C.ar      1 UNK      0.000000000
      798 C            46.664000000        39.704011344         6.348000000 C.ar      1 UNK      0.000000000
      799 C            47.892000000        38.995005672         6.348000000 C.ar      1 UNK      0.000000000
      800 C            47.892000000        41.830977312         6.348000000 C.ar      1 UNK      0.000000000
      801 C             0.000000000        45.376005672         6.348000000 C.ar      1 UNK      0.000000000
      802 C             0.000000000        43.957994328         6.348000000 C.ar      1 UNK      0.000000000
      803 C             1.228000000        43.248988656         6.348000000 C.ar      1 UNK      0.000000000
      804 C             1.228000000        46.085011344         6.348000000 C.ar      1 UNK      0.000000000
      805 C             2.456000000        45.376005672         6.348000000 C.ar      1 UNK      0.000000000
      806 C             2.456000000        43.957994328         6.348000000 C.ar      1 UNK      0.000000000
      807 C             3.684000000        43.248988656         6.348000000 C.ar      1 UNK      0.000000000
      808 C             3.684000000        46.085011344         6.348000000 C.ar      1 UNK      0.000000000
      809 C             4.912000000        45.376005672         6.348000000 C.ar      1 UNK      0.000000000
      810 C             4.912000000        43.957994328         6.348000000 C.ar      1 UNK      0.000000000
      811 C             6.140000000        43.248988656         6.348000000 C.ar      1 UNK      0.000000000
      812 C             6.140000000        46.085011344         6.348000000 C.ar      1 UNK      0.000000000
      813 C             7.368000000        45.376005672         6.348000000 C.ar      1 UNK      0.000000000
      814 C             7.368000000        43.957994328         6.348000000 C.ar      1 UNK      0.000000000
      815 C             8.596000000        43.248988656         6.348000000 C.ar      1 UNK      0.000000000
      816 C             8.596000000        46.085011344         6.348000000 C.ar      1 UNK      0.000000000
      817 C             9.824000000        45.376005672         6.348000000 C.ar      1 UNK      0.000000000
      818 C             9.824000000        43.957994328         6.348000000 C.ar      1 UNK      0.000000000
      819 C            11.052000000        43.248988656         6.348000000 C.ar      1 UNK      0.000000000
      820 C            11.052000000        46.085011344         6.348000000 C.ar      1 UNK      0.000000000
      821 C            12.280000000        45.376005672         6.348000000 C.ar      1 UNK      0.000000000
      822 C            12.280000000        43.957994328         6.348000000 C.ar      1 UNK      0.000000000
      823 C            13.508000000        43.248988656         6.348000000 C.ar      1 UNK      0.000000000
      824 C            13.508000000        46.085011344         6.348000000 C.ar      1 UNK      0.000000000
      825 C            14.736000000        45.376005672         6.348000000 C.ar      1 UNK      0.000000000
      826 C            14.736000000        43.957994328         6.348000000 C.ar      1 UNK      0.000000000
      827 C            15.964000000        43.248988656         6.348000000 C.ar      1 UNK      0.000000000
      828 C            15.964000000        46.085011344         6.348000000 C.ar      1 UNK      0.000000000
      829 C            17.192000000        45.376005672         6.348000000 C.ar      1 UNK      0.000000000
      830 C            17.192000000        43.957994328         6.348000000 C.ar      1 UNK      0.000000000
      831 C            18.420000000        43.248988656         6.348000000 C.ar      1 UNK      0.000000000
      832 C            18.420000000        46.085011344         6.348000000 C.ar      1 UNK      0.000000000
      833 C            19.648000000        45.376005672         6.348000000 C.ar      1 UNK      0.000000000
      834 C            19.648000000        43.957994328         6.348000000 C.ar      1 UNK      0.000000000
      835 C            20.876000000        43.248988656         6.348000000 C.ar      1 UNK      0.000000000
      836 C            20.876000000        46.085011344         6.348000000 C.ar      1 UNK      0.000000000
      837 C            22.104000000        45.376005672         6.348000000 C.ar      1 UNK      0.000000000
      838 C            22.104000000        43.957994328         6.348000000 C.ar      1 UNK      0.000000000
      839 C            23.332000000        43.248988656         6.348000000 C.ar      1 UNK      0.000000000
      840 C            23.332000000        46.085011344         6.348000000 C.ar      1 UNK      0.000000000
      841 C            24.560000000        45.376005672         6.348000000 C.ar      1 UNK      0.000000000
      842 C            24.560000000        43.957994328         6.348000000 C.ar      1 UNK      0.000000000
      843 C            25.788000000        43.248988656         6.348000000 C.ar      1 UNK      0.000000000
      844 C            25.788000000        46.085011344         6.348000000 C.ar      1 UNK      0.000000000
      845 C            27.016000000        45.376005672         6.348000000 C.ar      1 UNK      0.000000000
      846 C            27.016000000        43.957994328         6.348000000 C.ar      1 UNK      0.000000000
      847 C            28.244000000        43.248988656         6.348000000 C.ar      1 UNK      0.000000000
      848 C            28.244000000        46.085011344         6.348000000 C.ar      1 UNK      0.000000000
      849 C            29.472000000        45.376005672         6.348000000 C.ar      1 UNK      0.000000000
      850 C            29.472000000        43.957994328         6.348000000 C.ar      1 UNK      0.000000000
      851 C            30.700000000        43.248988656         6.348000000 C.ar      1 UNK      0.000000000
      852 C            30.700000000        46.085011344         6.348000000 C.ar      1 UNK      0.000000000
      853 C            31.928000000        45.376005672         6.348000000 C.ar      1 UNK      0.000000000
      854 C            31.928000000        43.957994328         6.348000000 C.ar      1 UNK      0.000000000
      855 C            33.156000000        43.248988656         6.348000000 C.ar      1 UNK      0.000000000
      856 C            33.156000000        46.085011344         6.348000000 C.ar      1 UNK      0.000000000
      857 C            34.384000000        45.376005672         6.348000000 C.ar      1 UNK      0.000000000
      858 C            34.384000000        43.957994328         6.348000000 C.ar      1 UNK      0.000000000
      859 C            35.612000000        43.248988656         6.348000000 C.ar      1 UNK      0.000000000
      860 C            35.612000000        46.085011344         6.348000000 C.ar      1 UNK      0.000000000
      861 C            36.840000000        45.376005672         6.348000000 C.ar      1 UNK      0.000000000
      862 C            36.840000000        43.957994328         6.348000000 C.ar      1 UNK      0.000000000
      863 C            38.068000000        43.248988656         6.348000000 C.ar      1 UNK      0.000000000
      864 C            38.068000000        46.085011344         6.348000000 C.ar      1 UNK      0.000000000
      865 C            39.296000000        45.376005672         6.348000000 C.ar      1 UNK      0.000000000
      866 C            39.296000000        43.957994328         6.348000000 C.ar      1 UNK      0.000000000
      867 C            40.524000000        43.248988656         6.348000000 C.ar      1 UNK      0.000000000
      868 C            40.524000000        46.085011344         6.348000000 C.ar      1 UNK      0.000000000
      869 C            41.752000000        45.376005672         6.348000000 C.ar      1 UNK      0.000000000
      870 C            41.752000000        43.957994328         6.348000000 C.ar      1 UNK      0.000000000
      871 C            42.980000000        43.248988656         6.348000000 C.ar      1 UNK      0.000000000
      872 C            42.980000000        46.085011344         6.348000000 C.ar      1 UNK      0.000000000
      873 C            44.208000000        45.376005672         6.348000000 C.ar      1 UNK      0.000000000
      874 C            44.208000000        43.957994328         6.348000000 C.ar      1 UNK      0.000000000
      875 C            45.436000000        43.248988656         6.348000000 C.ar      1 UNK      0.000000000
      876 C            45.436000000        46.085011344         6.348000000 C.ar      1 UNK      0.000000000
      877 C            46.664000000        45.376005672         6.348000000 C.ar      1 UNK      0.000000000
      878 C            46.664000000        43.957994328         6.348000000 C.ar      1 UNK      0.000000000
      879 C            47.892000000        43.248988656         6.348000000 C.ar      1 UNK      0.000000000
      880 C            47.892000000        46.085011344         6.348000000 C.ar      1 UNK      0.000000000
      881 C             0.000000000        49.629988656         6.348000000 C.ar      1 UNK      0.000000000
      882 C             0.000000000        48.211977312         6.348000000 C.ar      1 UNK      0.000000000
      883 C             1.228000000        47.503022688         6.348000000 C.ar      1 UNK      0.000000000
      884 C             1.228000000        50.338994328         6.348000000 C.ar      1 UNK      0.000000000
      885 C             2.456000000        49.629988656         6.348000000 C.ar      1 UNK      0.000000000
      886 C             2.456000000        48.211977312         6.348000000 C.ar      1 UNK      0.000000000
      887 C             3.684000000        47.503022688         6.348000000 C.ar      1 UNK      0.000000000
      888 C             3.684000000        50.338994328         6.348000000 C.ar      1 UNK      0.000000000
      889 C             4.912000000        49.629988656         6.348000000 C.ar      1 UNK      0.000000000
      890 C             4.912000000        48.211977312         6.348000000 C.ar      1 UNK      0.000000000
      891 C             6.140000000        47.503022688         6.348000000 C.ar      1 UNK      0.000000000
      892 C             6.140000000        50.338994328         6.348000000 C.ar      1 UNK      0.000000000
      893 C             7.368000000        49.629988656         6.348000000 C.ar      1 UNK      0.000000000
      894 C             7.368000000        48.211977312         6.348000000 C.ar      1 UNK      0.000000000
      895 C             8.596000000        47.503022688         6.348000000 C.ar      1 UNK      0.000000000
      896 C             8.596000000        50.338994328         6.348000000 C.ar      1 UNK      0.000000000
      897 C             9.824000000        49.629988656         6.348000000 C.ar      1 UNK      0.000000000
      898 C             9.824000000        48.211977312         6.348000000 C.ar      1 UNK      0.000000000
      899 C            11.052000000        47.503022688         6.348000000 C.ar      1 UNK      0.000000000
      900 C            11.052000000        50.338994328         6.348000000 C.ar      1 UNK      0.000000000
      901 C            12.280000000        49.629988656         6.348000000 C.ar      1 UNK      0.000000000
      902 C            12.280000000        48.211977312         6.348000000 C.ar      1 UNK      0.000000000
      903 C            13.508000000        47.503022688         6.348000000 C.ar      1 UNK      0.000000000
      904 C            13.508000000        50.338994328         6.348000000 C.ar      1 UNK      0.000000000
      905 C            14.736000000        49.629988656         6.348000000 C.ar      1 UNK      0.000000000
      906 C            14.736000000        48.211977312         6.348000000 C.ar      1 UNK      0.000000000
      907 C            15.964000000        47.503022688         6.348000000 C.ar      1 UNK      0.000000000
      908 C            15.964000000        50.338994328         6.348000000 C.ar      1 UNK      0.000000000
      909 C            17.192000000        49.629988656         6.348000000 C.ar      1 UNK      0.000000000
      910 C            17.192000000        48.211977312         6.348000000 C.ar      1 UNK      0.000000000
      911 C            18.420000000        47.503022688         6.348000000 C.ar      1 UNK      0.000000000
      912 C            18.420000000        50.338994328         6.348000000 C.ar      1 UNK      0.000000000
      913 C            19.648000000        49.629988656         6.348000000 C.ar      1 UNK      0.000000000
      914 C            19.648000000        48.211977312         6.348000000 C.ar      1 UNK      0.000000000
      915 C            20.876000000        47.503022688         6.348000000 C.ar      1 UNK      0.000000000
      916 C            20.876000000        50.338994328         6.348000000 C.ar      1 UNK      0.000000000
      917 C            22.104000000        49.629988656         6.348000000 C.ar      1 UNK      0.000000000
      918 C            22.104000000        48.211977312         6.348000000 C.ar      1 UNK      0.000000000
      919 C            23.332000000        47.503022688         6.348000000 C.ar      1 UNK      0.000000000
      920 C            23.332000000        50.338994328         6.348000000 C.ar      1 UNK      0.000000000
      921 C            24.560000000        49.629988656         6.348000000 C.ar      1 UNK      0.000000000
      922 C            24.560000000        48.211977312         6.348000000 C.ar      1 UNK      0.000000000
      923 C            25.788000000        47.503022688         6.348000000 C.ar      1 UNK      0.000000000
      924 C            25.788000000        50.338994328         6.348000000 C.ar      1 UNK      0.000000000
      925 C            27.016000000        49.629988656         6.348000000 C.ar      1 UNK      0.000000000
      926 C            27.016000000        48.211977312         6.348000000 C.ar      1 UNK      0.000000000
      927 C            28.244000000        47.503022688         6.348000000 C.ar      1 UNK      0.000000000
      928 C            28.244000000        50.338994328         6.348000000 C.ar      1 UNK      0.000000000
      929 C            29.472000000        49.629988656         6.348000000 C.ar      1 UNK      0.000000000
      930 C            29.472000000        48.211977312         6.348000000 C.ar      1 UNK      0.000000000
      931 C            30.700000000        47.503022688         6.348000000 C.ar      1 UNK      0.000000000
      932 C            30.700000000        50.338994328         6.348000000 C.ar      1 UNK      0.000000000
      933 C            31.928000000        49.629988656         6.348000000 C.ar      1 UNK      0.000000000
      934 C            31.928000000        48.211977312         6.348000000 C.ar      1 UNK      0.000000000
      935 C            33.156000000        47.503022688         6.348000000 C.ar      1 UNK      0.000000000
      936 C            33.156000000        50.338994328         6.348000000 C.ar      1 UNK      0.000000000
      937 C            34.384000000        49.629988656         6.348000000 C.ar      1 UNK      0.000000000
      938 C            34.384000000        48.211977312         6.348000000 C.ar      1 UNK      0.000000000
      939 C            35.612000000        47.503022688         6.348000000 C.ar      1 UNK      0.000000000
      940 C            35.612000000        50.338994328         6.348000000 C.ar      1 UNK      0.000000000
      941 C            36.840000000        49.629988656         6.348000000 C.ar      1 UNK      0.000000000
      942 C            36.840000000        48.211977312         6.348000000 C.ar      1 UNK      0.000000000
      943 C            38.068000000        47.503022688         6.348000000 C.ar      1 UNK      0.000000000
      944 C            38.068000000        50.338994328         6.348000000 C.ar      1 UNK      0.000000000
      945 C            39.296000000        49.629988656         6.348000000 C.ar      1 UNK      0.000000000
      946 C            39.296000000        48.211977312         6.348000000 C.ar      1 UNK      0.000000000
      947 C            40.524000000        47.503022688         6.348000000 C.ar      1 UNK      0.000000000
      948 C            40.524000000        50.338994328         6.348000000 C.ar      1 UNK      0.000000000
      949 C            41.752000000        49.629988656         6.348000000 C.ar      1 UNK      0.000000000
      950 C            41.752000000        48.211977312         6.348000000 C.ar      1 UNK      0.000000000
      951 C            42.980000000        47.503022688         6.348000000 C.ar      1 UNK      0.000000000
      952 C            42.980000000        50.338994328         6.348000000 C.ar      1 UNK      0.000000000
      953 C            44.208000000        49.629988656         6.348000000 C.ar      1 UNK      0.000000000
      954 C            44.208000000        48.211977312         6.348000000 C.ar      1 UNK      0.000000000
      955 C            45.436000000        47.503022688         6.348000000 C.ar      1 UNK      0.000000000
      956 C            45.436000000        50.338994328         6.348000000 C.ar      1 UNK      0.000000000
      957 C            46.664000000        49.629988656         6.348000000 C.ar      1 UNK      0.000000000
      958 C            46.664000000        48.211977312         6.348000000 C.ar      1 UNK      0.000000000
      959 C            47.892000000        47.503022688         6.348000000 C.ar      1 UNK      0.000000000
      960 C            47.892000000        50.338994328         6.348000000 C.ar      1 UNK      0.000000000
      961 O            27.279000000         6.921000000        26.029000000 O.3       1 UNK     -0.847600000
      962 H            28.026000000         7.283000000        25.470000000 H         1 UNK      0.423800000
      963 H            27.649000000         6.417000000        26.809000000 H         1 UNK      0.423800000
      964 O            40.427000000        42.866000000        26.804000000 O.3       1 UNK     -0.847600000
      965 H            40.826000000        42.058000000        27.239000000 H         1 UNK      0.423800000
      966 H            40.920000000        43.687000000        27.092000000 H         1 UNK      0.423800000
      967 O            44.947000000         4.297000000        27.830000000 O.3       1 UNK     -0.847600000
      968 H            43.959000000         4.322000000        27.671000000 H         1 UNK      0.423800000
      969 H            45.201000000         4.988000000        28.506000000 H         1 UNK      0.423800000
      970 O            42.160000000        45.596000000        21.437000000 O.3       1 UNK     -0.847600000
      971 H            42.614000000        46.465000000        21.237000000 H         1 UNK      0.423800000
      972 H            42.385000000        45.299000000        22.364000000 H         1 UNK      0.423800000
      973 O            33.252000000        20.504000000        38.936000000 O.3       1 UNK     -0.847600000
      974 H            32.381000000        20.930000000        38.687000000 H         1 UNK      0.423800000
      975 H            33.457000000        19.753000000        38.310000000 H         1 UNK      0.423800000
      976 O            45.631000000        32.941000000        27.386000000 O.3       1 UNK     -0.847600000
      977 H            46.239000000        32.188000000        27.129000000 H         1 UNK      0.423800000
      978 H            45.411000000        32.885000000        28.359000000 H         1 UNK      0.423800000
      979 O             5.343000000        44.201000000        55.551000000 O.3       1 UNK     -0.847600000
      980 H             5.680000000        44.400000000        56.473000000 H         1 UNK      0.423800000
      981 H             4.470000000        44.662000000        55.399000000 H         1 UNK      0.423800000
      982 O            10.892000000        28.844000000        17.732000000 O.3       1 UNK     -0.847600000
      983 H            10.180000000        29.328000000        18.243000000 H         1 UNK      0.423800000
      984 H            11.585000000        28.493000000        18.361000000 H         1 UNK      0.423800000
      985 O            20.288000000        27.171000000        18.237000000 O.3       1 UNK     -0.847600000
      986 H            19.312000000        27.336000000        18.387000000 H         1 UNK      0.423800000
      987 H            20.621000000        26.485000000        18.883000000 H         1 UNK      0.423800000
      988 O            17.661000000        38.397000000        46.483000000 O.3       1 UNK     -0.847600000
      989 H            17.509000000        37.734000000        45.749000000 H         1 UNK      0.423800000
      990 H            16.785000000        38.751000000        46.809000000 H         1 UNK      0.423800000
      991 O            15.529000000        25.727000000        54.712000000 O.3       1 UNK     -0.847600000
      992 H            15.176000000        25.255000000        55.521000000 H         1 UNK      0.423800000
      993 H            16.432000000        26.109000000        54.906000000 H         1 UNK      0.423800000
      994 O            45.417000000        22.282000000        20.771000000 O.3       1 UNK     -0.847600000
      995 H            44.893000000        23.118000000        20.945000000 H         1 UNK      0.423800000
      996 H            44.795000000        21.508000000        20.654000000 H         1 UNK      0.423800000
      997 O            46.818000000        28.694000000        28.608000000 O.3       1 UNK     -0.847600000
      998 H            46.059000000        29.128000000        29.097000000 H         1 UNK      0.423800000
      999 H            46.538000000        28.466000000        27.677000000 H         1 UNK      0.423800000
     1000 O             2.549000000        48.607000000        23.795000000 O.3       1 UNK     -0.847600000
     1001 H             2.982000000        49.507000000        23.865000000 H         1 UNK      0.423800000
     1002 H             2.615000000        48.128000000        24.669000000 H         1 UNK      0.423800000
     1003 O             6.536000000        33.743000000        37.933000000 O.3       1 UNK     -0.847600000
     1004 H             7.469000000        33.600000000        37.599000000 H         1 UNK      0.423800000
     1005 H             5.877000000        33.424000000        37.252000000 H         1 UNK      0.423800000
     1006 O            38.377000000        39.229000000        57.518000000 O.3       1 UNK     -0.847600000
     1007 H            38.797000000        40.039000000        57.106000000 H         1 UNK      0.423800000
     1008 H            38.625000000        39.170000000        58.485000000 H         1 UNK      0.423800000
     1009 O            12.361000000         6.506000000        39.190000000 O.3       1 UNK     -0.847600000
     1010 H            11.580000000         6.691000000        39.789000000 H         1 UNK      0.423800000
     1011 H            13.185000000         6.928000000        39.564000000 H         1 UNK      0.423800000
     1012 O             9.781000000        10.721000000        29.268000000 O.3       1 UNK     -0.847600000
     1013 H            10.756000000        10.904000000        29.403000000 H         1 UNK      0.423800000
     1014 H             9.239000000        11.482000000        29.622000000 H         1 UNK      0.423800000
     1015 O            23.506000000        26.665000000        33.396000000 O.3       1 UNK     -0.847600000
     1016 H            23.786000000        27.583000000        33.110000000 H         1 UNK      0.423800000
     1017 H            24.034000000        25.977000000        32.899000000 H         1 UNK      0.423800000
     1018 O             9.334000000         7.861000000        56.656000000 O.3       1 UNK     -0.847600000
     1019 H             8.825000000         8.564000000        56.158000000 H         1 UNK      0.423800000
     1020 H             9.910000000         8.286000000        57.353000000 H         1 UNK      0.423800000
     1021 O            34.466000000        43.712000000        58.393000000 O.3       1 UNK     -0.847600000
     1022 H            34.658000000        44.457000000        57.753000000 H         1 UNK      0.423800000
     1023 H            35.188000000        43.023000000        58.341000000 H         1 UNK      0.423800000
     1024 O            34.048000000        40.970000000        38.804000000 O.3       1 UNK     -0.847600000
     1025 H            34.860000000        40.387000000        38.766000000 H         1 UNK      0.423800000
     1026 H            34.029000000        41.582000000        38.014000000 H         1 UNK      0.423800000
     1027 O            41.117000000        10.369000000        50.332000000 O.3       1 UNK     -0.847600000
     1028 H            40.819000000         9.961000000        49.468000000 H         1 UNK      0.423800000
     1029 H            40.439000000        10.196000000        51.044000000 H         1 UNK      0.423800000
     1030 O            18.377000000        15.139000000        49.296000000 O.3       1 UNK     -0.847600000
     1031 H            19.310000000        14.945000000        49.603000000 H         1 UNK      0.423800000
     1032 H            17.723000000        14.601000000        49.826000000 H         1 UNK      0.423800000
     1033 O             9.484000000        14.887000000        50.891000000 O.3       1 UNK     -0.847600000
     1034 H            10.445000000        15.030000000        51.132000000 H         1 UNK      0.423800000
     1035 H             9.387000000        14.046000000        50.359000000 H         1 UNK      0.423800000
     1036 O            30.395000000        19.187000000        36.416000000 O.3       1 UNK     -0.847600000
     1037 H            29.805000000        18.470000000        36.790000000 H         1 UNK      0.423800000
     1038 H            30.858000000        18.854000000        35.594000000 H         1 UNK      0.423800000
     1039 O             9.681000000        46.591000000        16.042000000 O.3       1 UNK     -0.847600000
     1040 H             9.779000000        46.868000000        15.085000000 H         1 UNK      0.423800000
     1041 H            10.544000000        46.730000000        16.528000000 H         1 UNK      0.423800000
     1042 O             2.582000000         7.161000000        27.857000000 O.3       1 UNK     -0.847600000
     1043 H             3.572000000         7.186000000        28.007000000 H         1 UNK      0.423800000
     1044 H             2.385000000         6.841000000        26.931000000 H         1 UNK      0.423800000
     1045 O            36.087000000        37.582000000        38.665000000 O.3       1 UNK     -0.847600000
     1046 H            35.440000000        38.098000000        39.230000000 H         1 UNK      0.423800000
     1047 H            35.850000000        37.679000000        37.699000000 H         1 UNK      0.423800000
     1048 O            30.764000000        41.347000000        51.523000000 O.3       1 UNK     -0.847600000
     1049 H            30.662000000        40.746000000        50.728000000 H         1 UNK      0.423800000
     1050 H            30.203000000        41.012000000        52.278000000 H         1 UNK      0.423800000
     1051 O             3.965000000        20.970000000        27.129000000 O.3       1 UNK     -0.847600000
     1052 H             3.354000000        20.207000000        27.344000000 H         1 UNK      0.423800000
     1053 H             4.097000000        21.541000000        27.939000000 H         1 UNK      0.423800000
     1054 O            18.348000000         4.211000000        19.183000000 O.3       1 UNK     -0.847600000
     1055 H            18.860000000         3.590000000        19.778000000 H         1 UNK      0.423800000
     1056 H            18.519000000         5.159000000        19.451000000 H         1 UNK      0.423800000
     1057 O             5.094000000         4.768000000        52.793000000 O.3       1 UNK     -0.847600000
     1058 H             4.429000000         5.439000000        53.125000000 H         1 UNK      0.423800000
     1059 H             4.896000000         4.532000000        51.842000000 H         1 UNK      0.423800000
     1060 O            20.884000000        23.229000000        45.950000000 O.3       1 UNK     -0.847600000
     1061 H            20.082000000        22.703000000        45.663000000 H         1 UNK      0.423800000
     1062 H            21.232000000        22.876000000        46.818000000 H         1 UNK      0.423800000
     1063 O            34.488000000        30.328000000        36.732000000 O.3       1 UNK     -0.847600000
     1064 H            34.174000000        29.532000000        36.212000000 H         1 UNK      0.423800000
     1065 H            34.778000000        31.051000000        36.106000000 H         1 UNK      0.423800000
     1066 O            19.287000000         7.940000000        17.755000000 O.3       1 UNK     -0.847600000
     1067 H            18.420000000         8.305000000        17.414000000 H         1 UNK      0.423800000
     1068 H            19.142000000         7.039000000        18.162000000 H         1 UNK      0.423800000
     1069 O             2.220000000        19.730000000        30.188000000 O.3       1 UNK     -0.847600000
     1070 H             2.846000000        19.036000000        29.831000000 H         1 UNK      0.423800000
     1071 H             1.784000000        19.399000000        31.024000000 H         1 UNK      0.423800000
     1072 O             4.173000000         8.614000000        15.601000000 O.3       1 UNK     -0.847600000
     1073 H             4.163000000         8.475000000        16.593000000 H         1 UNK      0.423800000
     1074 H             3.703000000         7.859000000        15.146000000 H         1 UNK      0.423800000
     1075 O            40.064000000        11.104000000        21.451000000 O.3       1 UNK     -0.847600000
     1076 H            39.256000000        10.782000000        21.945000000 H         1 UNK      0.423800000
     1077 H            40.893000000        10.838000000        21.942000000 H         1 UNK      0.423800000
     1078 O            41.586000000        25.867000000        49.332000000 O.3       1 UNK     -0.847600000
     1079 H            40.613000000        25.769000000        49.544000000 H         1 UNK      0.423800000
     1080 H            41.718000000        25.909000000        48.343000000 H         1 UNK      0.423800000
     1081 O            17.845000000         9.508000000        60.552000000 O.3       1 UNK     -0.847600000
     1082 H            18.504000000         9.907000000        61.192000000 H         1 UNK      0.423800000
     1083 H            17.039000000         9.187000000        61.048000000 H         1 UNK      0.423800000
     1084 O            12.486000000         2.033000000        40.250000000 O.3       1 UNK     -0.847600000
     1085 H            12.062000000         2.937000000        40.321000000 H         1 UNK      0.423800000
     1086 H            13.382000000         2.110000000        39.814000000 H         1 UNK      0.423800000
     1087 O            18.440000000        40.571000000        35.900000000 O.3       1 UNK     -0.847600000
     1088 H            18.792000000        39.794000000        35.376000000 H         1 UNK      0.423800000
     1089 H            18.935000000        41.402000000        35.651000000 H         1 UNK      0.423800000
     1090 O            38.407000000        44.453000000        52.492000000 O.3       1 UNK     -0.847600000
     1091 H            38.399000000        45.184000000        53.177000000 H         1 UNK      0.423800000
     1092 H            39.248000000        43.920000000        52.573000000 H         1 UNK      0.423800000
     1093 O            28.328000000        47.858000000        18.313000000 O.3       1 UNK     -0.847600000
     1094 H            28.963000000        48.064000000        19.060000000 H         1 UNK      0.423800000
     1095 H            27.442000000        48.283000000        18.492000000 H         1 UNK      0.423800000
     1096 O            43.812000000        13.983000000        14.327000000 O.3       1 UNK     -0.847600000
     1097 H            44.804000000        14.065000000        14.227000000 H         1 UNK      0.423800000
     1098 H            43.542000000        14.213000000        15.261000000 H         1 UNK      0.423800000
     1099 O            28.932000000        46.220000000        39.831000000 O.3       1 UNK     -0.847600000
     1100 H            29.133000000        47.136000000        40.179000000 H         1 UNK      0.423800000
     1101 H            28.992000000        46.212000000        38.833000000 H         1 UNK      0.423800000
     1102 O            12.948000000        24.836000000        52.599000000 O.3       1 UNK     -0.847600000
     1103 H            12.584000000        25.697000000        52.239000000 H         1 UNK      0.423800000
     1104 H            13.171000000        24.939000000        53.568000000 H         1 UNK      0.423800000
     1105 O            28.238000000        20.281000000        51.069000000 O.3       1 UNK     -0.847600000
     1106 H            28.680000000        20.444000000        51.952000000 H         1 UNK      0.423800000
     1107 H            28.096000000        19.301000000        50.934000000 H         1 UNK      0.423800000
     1108 O            28.112000000        13.771000000        27.717000000 O.3       1 UNK     -0.847600000
     1109 H            27.596000000        14.205000000        26.977000000 H         1 UNK      0.423800000
     1110 H            27.597000000        12.998000000        28.084000000 H         1 UNK      0.423800000
     1111 O            27.479000000        31.778000000        34.374000000 O.3       1 UNK     -0.847600000
     1112 H            27.084000000        32.290000000        35.139000000 H         1 UNK      0.423800000
     1113 H            27.613000000        30.823000000        34.635000000 H         1 UNK      0.423800000
     1114 O             5.948000000        29.149000000        16.376000000 O.3       1 UNK     -0.847600000
     1115 H             6.500000000        29.783000000        15.832000000 H         1 UNK      0.423800000
     1116 H             5.343000000        29.659000000        16.985000000 H         1 UNK      0.423800000
     1117 O            16.096000000        11.293000000        47.327000000 O.3       1 UNK     -0.847600000
     1118 H            16.826000000        10.838000000        46.814000000 H         1 UNK      0.423800000
     1119 H            15.682000000        10.652000000        47.973000000 H         1 UNK      0.423800000
     1120 O            36.083000000        14.370000000        58.499000000 O.3       1 UNK     -0.847600000
     1121 H            35.428000000        14.961000000        58.974000000 H         1 UNK      0.423800000
     1122 H            35.722000000        14.113000000        57.603000000 H         1 UNK      0.423800000
     1123 O             7.374000000        32.644000000        18.711000000 O.3       1 UNK     -0.847600000
     1124 H             7.045000000        33.214000000        17.956000000 H         1 UNK      0.423800000
     1125 H             6.618000000        32.117000000        19.096000000 H         1 UNK      0.423800000
     1126 O            18.051000000        26.248000000        20.685000000 O.3       1 UNK     -0.847600000
     1127 H            18.629000000        26.654000000        21.394000000 H         1 UNK      0.423800000
     1128 H            17.867000000        25.290000000        20.902000000 H         1 UNK      0.423800000
     1129 O            43.251000000        41.057000000        48.652000000 O.3       1 UNK     -0.847600000
     1130 H            42.741000000        41.798000000        48.211000000 H         1 UNK      0.423800000
     1131 H            43.442000000        40.334000000        47.990000000 H         1 UNK      0.423800000
     1132 O            35.206000000        45.250000000        24.053000000 O.3       1 UNK     -0.847600000
     1133 H            35.412000000        44.632000000        24.814000000 H         1 UNK      0.423800000
     1134 H            36.055000000        45.561000000        23.627000000 H         1 UNK      0.423800000
     1135 O            31.232000000        23.769000000        21.070000000 O.3       1 UNK     -0.847600000
     1136 H            31.001000000        24.609000000        21.562000000 H         1 UNK      0.423800000
     1137 H            31.658000000        23.993000000        20.194000000 H         1 UNK      0.423800000
     1138 O            29.156000000         9.978000000        50.546000000 O.3       1 UNK     -0.847600000
     1139 H            29.048000000        10.388000000        49.639000000 H         1 UNK      0.423800000
     1140 H            30.015000000         9.469000000        50.590000000 H         1 UNK      0.423800000
     1141 O            40.184000000        43.671000000        58.118000000 O.3       1 UNK     -0.847600000
     1142 H            41.094000000        44.042000000        57.930000000 H         1 UNK      0.423800000
     1143 H            39.829000000        43.208000000        57.307000000 H         1 UNK      0.423800000
     1144 O            13.575000000        36.530000000        26.891000000 O.3       1 UNK     -0.847600000
     1145 H            14.133000000        35.845000000        26.420000000 H         1 UNK      0.423800000
     1146 H            14.103000000        36.951000000        27.628000000 H         1 UNK      0.423800000
     1147 O            39.344000000        35.699000000        53.211000000 O.3       1 UNK     -0.847600000
     1148 H            38.922000000        35.876000000        52.321000000 H         1 UNK      0.423800000
     1149 H            40.331000000        35.852000000        53.158000000 H         1 UNK      0.423800000
     1150 O            30.980000000        43.032000000        46.238000000 O.3       1 UNK     -0.847600000
     1151 H            31.152000000        43.340000000        47.175000000 H         1 UNK      0.423800000
     1152 H            31.510000000        42.207000000        46.048000000 H         1 UNK      0.423800000
     1153 O            40.537000000        26.455000000        31.812000000 O.3       1 UNK     -0.847600000
     1154 H            41.392000000        26.792000000        32.209000000 H         1 UNK      0.423800000
     1155 H            40.435000000        26.800000000        30.880000000 H         1 UNK      0.423800000
     1156 O            24.842000000         5.231000000        58.895000000 O.3       1 UNK     -0.847600000
     1157 H            23.864000000         5.129000000        59.080000000 H         1 UNK      0.423800000
     1158 H            25.307000000         5.593000000        59.703000000 H         1 UNK      0.423800000
     1159 O            28.879000000        33.186000000        15.571000000 O.3       1 UNK     -0.847600000
     1160 H            29.342000000        34.073000000        15.598000000 H         1 UNK      0.423800000
     1161 H            29.294000000        32.564000000        16.234000000 H         1 UNK      0.423800000
     1162 O            47.612000000        11.541000000        15.359000000 O.3       1 UNK     -0.847600000
     1163 H            46.949000000        12.120000000        15.838000000 H         1 UNK      0.423800000
     1164 H            47.252000000        11.278000000        14.465000000 H         1 UNK      0.423800000
     1165 O            22.170000000        12.867000000        34.295000000 O.3       1 UNK     -0.847600000
     1166 H            22.531000000        13.187000000        33.418000000 H         1 UNK      0.423800000
     1167 H            21.816000000        11.937000000        34.200000000 H         1 UNK      0.423800000
     1168 O            14.399000000         4.020000000        36.046000000 O.3       1 UNK     -0.847600000
     1169 H            14.922000000         3.545000000        35.337000000 H         1 UNK      0.423800000
     1170 H            14.309000000         3.437000000        36.852000000 H         1 UNK      0.423800000
     1171 O            42.778000000        14.589000000        44.021000000 O.3       1 UNK     -0.847600000
     1172 H            42.986000000        14.077000000        44.856000000 H         1 UNK      0.423800000
     1173 H            43.348000000        15.408000000        43.972000000 H         1 UNK      0.423800000
     1174 O            28.534000000        42.186000000        49.540000000 O.3       1 UNK     -0.847600000
     1175 H            27.769000000        42.832000000        49.524000000 H         1 UNK      0.423800000
     1176 H            28.907000000        42.123000000        50.464000000 H         1 UNK      0.423800000
     1177 O            21.079000000         6.799000000        14.910000000 O.3       1 UNK     -0.847600000
     1178 H            21.806000000         6.153000000        15.151000000 H         1 UNK      0.423800000
     1179 H            20.462000000         6.385000000        14.243000000 H         1 UNK      0.423800000
     1180 O            37.651000000        20.309000000        34.084000000 O.3       1 UNK     -0.847600000
     1181 H            38.197000000        20.890000000        33.478000000 H         1 UNK      0.423800000
     1182 H            36.756000000        20.723000000        34.240000000 H         1 UNK      0.423800000
     1183 O            42.595000000        40.755000000        22.964000000 O.3       1 UNK     -0.847600000
     1184 H            41.995000000        41.279000000        23.570000000 H         1 UNK      0.423800000
     1185 H            42.073000000        40.037000000        22.505000000 H         1 UNK      0.423800000
     1186 O            33.269000000        24.760000000        17.614000000 O.3       1 UNK     -0.847600000
     1187 H            32.696000000        25.505000000        17.960000000 H         1 UNK      0.423800000
     1188 H            33.805000000        25.077000000        16.833000000 H         1 UNK      0.423800000
     1189 O            14.582000000        48.115000000        20.414000000 O.3       1 UNK     -0.847600000
     1190 H            15.484000000        48.423000000        20.108000000 H         1 UNK      0.423800000
     1191 H            14.604000000        47.914000000        21.392000000 H         1 UNK      0.423800000
     1192 O             4.296000000        36.065000000        43.954000000 O.3       1 UNK     -0.847600000
     1193 H             4.582000000        35.890000000        43.011000000 H         1 UNK      0.423800000
     1194 H             5.058000000        36.444000000        44.477000000 H         1 UNK      0.423800000
     1195 O            19.070000000        33.895000000        51.835000000 O.3       1 UNK     -0.847600000
     1196 H            19.716000000        33.415000000        51.241000000 H         1 UNK      0.423800000
     1197 H            19.218000000        34.882000000        51.774000000 H         1 UNK      0.423800000
     1198 O            22.517000000        33.895000000        31.303000000 O.3       1 UNK     -0.847600000
     1199 H            21.818000000        33.737000000        32.002000000 H         1 UNK      0.423800000
     1200 H            23.190000000        34.554000000        31.636000000 H         1 UNK      0.423800000
     1201 O            27.511000000        29.115000000        40.574000000 O.3       1 UNK     -0.847600000
     1202 H            26.597000000        28.960000000        40.953000000 H         1 UNK      0.423800000
     1203 H            28.196000000        29.048000000        41.298000000 H         1 UNK      0.423800000
     1204 O             7.427000000        34.914000000        49.721000000 O.3       1 UNK     -0.847600000
     1205 H             7.707000000        35.684000000        50.296000000 H         1 UNK      0.423800000
     1206 H             6.710000000        34.389000000        50.179000000 H         1 UNK      0.423800000
     1207 O            44.378000000        28.169000000        55.626000000 O.3       1 UNK     -0.847600000
     1208 H            43.828000000        28.510000000        54.862000000 H         1 UNK      0.423800000
     1209 H            45.013000000        27.468000000        55.304000000 H         1 UNK      0.423800000
     1210 O            30.665000000        41.268000000        36.611000000 O.3       1 UNK     -0.847600000
     1211 H            31.544000000        40.887000000        36.903000000 H         1 UNK      0.423800000
     1212 H            30.630000000        41.321000000        35.614000000 H         1 UNK      0.423800000
     1213 O            35.142000000        40.835000000        48.290000000 O.3       1 UNK     -0.847600000
     1214 H            34.296000000        40.994000000        47.778000000 H         1 UNK      0.423800000
     1215 H            35.095000000        41.293000000        49.177000000 H         1 UNK      0.423800000
     1216 O             2.413000000        42.549000000        52.232000000 O.3       1 UNK     -0.847600000
     1217 H             1.854000000        43.079000000        51.593000000 H         1 UNK      0.423800000
     1218 H             1.884000000        42.337000000        53.053000000 H         1 UNK      0.423800000
     1219 O            36.225000000        25.312000000        34.338000000 O.3       1 UNK     -0.847600000
     1220 H            37.002000000        25.785000000        34.757000000 H         1 UNK      0.423800000
     1221 H            36.043000000        25.692000000        33.432000000 H         1 UNK      0.423800000
     1222 O            31.584000000        44.730000000        56.360000000 O.3       1 UNK     -0.847600000
     1223 H            30.947000000        44.065000000        56.754000000 H         1 UNK      0.423800000
     1224 H            31.844000000        44.448000000        55.437000000 H         1 UNK      0.423800000
     1225 O            13.338000000        46.949000000        46.794000000 O.3       1 UNK     -0.847600000
     1226 H            12.654000000        47.590000000        47.145000000 H         1 UNK      0.423800000
     1227 H            13.671000000        46.366000000        47.534000000 H         1 UNK      0.423800000
     1228 O            20.722000000        12.198000000        19.768000000 O.3       1 UNK     -0.847600000
     1229 H            19.926000000        12.803000000        19.706000000 H         1 UNK      0.423800000
     1230 H            20.702000000        11.531000000        19.024000000 H         1 UNK      0.423800000
     1231 O            34.168000000        23.141000000        19.950000000 O.3       1 UNK     -0.847600000
     1232 H            34.125000000        22.780000000        19.017000000 H         1 UNK      0.423800000
     1233 H            35.111000000        23.122000000        20.280000000 H         1 UNK      0.423800000
     1234 O            42.617000000         7.194000000        44.153000000 O.3       1 UNK     -0.847600000
     1235 H            43.342000000         6.509000000        44.068000000 H         1 UNK      0.423800000
     1236 H            41.972000000         6.923000000        44.866000000 H         1 UNK      0.423800000
     1237 O            15.413000000        37.832000000        16.503000000 O.3       1 UNK     -0.847600000
     1238 H            16.008000000        38.598000000        16.751000000 H         1 UNK      0.423800000
     1239 H            14.455000000        38.111000000        16.560000000 H         1 UNK      0.423800000
     1240 O            34.800000000        36.412000000        48.271000000 O.3       1 UNK     -0.847600000
     1241 H            34.935000000        37.347000000        47.939000000 H         1 UNK      0.423800000
     1242 H            34.865000000        36.391000000        49.268000000 H         1 UNK      0.423800000
     1243 O            14.616000000        39.922000000        60.489000000 O.3       1 UNK     -0.847600000
     1244 H            15.322000000        39.859000000        61.196000000 H         1 UNK      0.423800000
     1245 H            14.339000000        40.874000000        60.366000000 H         1 UNK      0.423800000
     1246 O            31.323000000        45.478000000        60.074000000 O.3       1 UNK     -0.847600000
     1247 H            30.804000000        46.198000000        60.537000000 H         1 UNK      0.423800000
     1248 H            31.352000000        45.656000000        59.091000000 H         1 UNK      0.423800000
     1249 O            34.270000000        46.259000000        41.754000000 O.3       1 UNK     -0.847600000
     1250 H            34.848000000        46.611000000        42.491000000 H         1 UNK      0.423800000
     1251 H            34.836000000        45.976000000        40.981000000 H         1 UNK      0.423800000
     1252 O            38.681000000        39.068000000        45.212000000 O.3       1 UNK     -0.847600000
     1253 H            38.099000000        38.313000000        44.905000000 H         1 UNK      0.423800000
     1254 H            38.281000000        39.501000000        46.018000000 H         1 UNK      0.423800000
     1255 O            43.552000000        17.586000000        15.153000000 O.3       1 UNK     -0.847600000
     1256 H            42.785000000        18.180000000        14.906000000 H         1 UNK      0.423800000
     1257 H            44.402000000        17.953000000        14.777000000 H         1 UNK      0.423800000
     1258 O            27.239000000        29.192000000        21.095000000 O.3       1 UNK     -0.847600000
     1259 H            27.755000000        28.441000000        20.681000000 H         1 UNK      0.423800000
     1260 H            26.273000000        28.946000000        21.164000000 H         1 UNK      0.423800000
     1261 O             7.411000000        22.278000000        48.339000000 O.3       1 UNK     -0.847600000
     1262 H             6.554000000        22.558000000        48.774000000 H         1 UNK      0.423800000
     1263 H             7.230000000        21.924000000        47.423000000 H         1 UNK      0.423800000
     1264 O            20.643000000        42.693000000        18.103000000 O.3       1 UNK     -0.847600000
     1265 H            19.679000000        42.960000000        18.146000000 H         1 UNK      0.423800000
     1266 H            21.168000000        43.194000000        18.790000000 H         1 UNK      0.423800000
     1267 O            10.011000000        17.048000000        40.222000000 O.3       1 UNK     -0.847600000
     1268 H            10.021000000        18.035000000        40.393000000 H         1 UNK      0.423800000
     1269 H             9.481000000        16.850000000        39.398000000 H         1 UNK      0.423800000
     1270 O            47.042000000        42.389000000        16.930000000 O.3       1 UNK     -0.847600000
     1271 H            46.209000000        41.866000000        17.114000000 H         1 UNK      0.423800000
     1272 H            47.294000000        42.925000000        17.735000000 H         1 UNK      0.423800000
     1273 O            25.331000000        22.796000000        48.335000000 O.3       1 UNK     -0.847600000
     1274 H            24.890000000        22.817000000        47.437000000 H         1 UNK      0.423800000
     1275 H            25.050000000        23.590000000        48.873000000 H         1 UNK      0.423800000
     1276 O            40.269000000         8.537000000        26.645000000 O.3       1 UNK     -0.847600000
     1277 H            40.956000000         7.896000000        26.991000000 H         1 UNK      0.423800000
     1278 H            40.288000000         8.551000000        25.646000000 H         1 UNK      0.423800000
     1279 O            13.398000000        43.488000000        45.539000000 O.3       1 UNK     -0.847600000
     1280 H            13.176000000        42.603000000        45.950000000 H         1 UNK      0.423800000
     1281 H            13.713000000        43.360000000        44.599000000 H         1 UNK      0.423800000
     1282 O            18.320000000        27.442000000        35.599000000 O.3       1 UNK     -0.847600000
     1283 H            17.995000000        28.293000000        36.013000000 H         1 UNK      0.423800000
     1284 H            17.548000000        26.922000000        35.235000000 H         1 UNK      0.423800000
     1285 O            11.330000000        18.382000000        36.955000000 O.3       1 UNK     -0.847600000
     1286 H            10.688000000        19.108000000        36.707000000 H         1 UNK      0.423800000
     1287 H            11.096000000        18.010000000        37.853000000 H         1 UNK      0.423800000
     1288 O             9.884000000        41.408000000        45.426000000 O.3       1 UNK     -0.847600000
     1289 H            10.403000000        41.640000000        44.602000000 H         1 UNK      0.423800000
     1290 H            10.381000000        40.727000000        45.963000000 H         1 UNK      0.423800000
     1291 O            18.222000000         8.871000000        46.448000000 O.3       1 UNK     -0.847600000
     1292 H            18.931000000         9.210000000        45.828000000 H         1 UNK      0.423800000
     1293 H            18.612000000         8.200000000        47.078000000 H         1 UNK      0.423800000
     1294 O            14.281000000        38.550000000        47.299000000 O.3       1 UNK     -0.847600000
     1295 H            14.974000000        38.305000000        47.979000000 H         1 UNK      0.423800000
     1296 H            13.370000000        38.323000000        47.643000000 H         1 UNK      0.423800000
     1297 O             7.466000000        26.705000000        52.269000000 O.3       1 UNK     -0.847600000
     1298 H             7.210000000        27.111000000        51.390000000 H         1 UNK      0.423800000
     1299 H             6.645000000        26.497000000        52.800000000 H         1 UNK      0.423800000
     1300 O            23.218000000        15.126000000        24.562000000 O.3       1 UNK     -0.847600000
     1301 H            24.179000000        14.846000000        24.534000000 H         1 UNK      0.423800000
     1302 H            23.143000000        16.107000000        24.390000000 H         1 UNK      0.423800000
     1303 O            11.867000000        11.867000000        55.298000000 O.3       1 UNK     -0.847600000
     1304 H            12.036000000        12.682000000        54.742000000 H         1 UNK      0.423800000
     1305 H            11.689000000        12.132000000        56.246000000 H         1 UNK      0.423800000
     1306 O            23.369000000        29.540000000        17.602000000 O.3       1 UNK     -0.847600000
     1307 H            23.339000000        30.286000000        18.269000000 H         1 UNK      0.423800000
     1308 H            22.553000000        29.564000000        17.026000000 H         1 UNK      0.423800000
     1309 O            27.027000000        26.021000000        21.886000000 O.3       1 UNK     -0.847600000
     1310 H            27.678000000        25.301000000        21.640000000 H         1 UNK      0.423800000
     1311 H            26.514000000        26.309000000        21.078000000 H         1 UNK      0.423800000
     1312 O            11.841000000        40.231000000        22.700000000 O.3       1 UNK     -0.847600000
     1313 H            11.056000000        39.642000000        22.900000000 H         1 UNK      0.423800000
     1314 H            12.157000000        40.675000000        23.537000000 H         1 UNK      0.423800000
     1315 O            37.108000000        11.230000000        33.274000000 O.3       1 UNK     -0.847600000
     1316 H            37.798000000        11.862000000        33.632000000 H         1 UNK      0.423800000
     1317 H            36.736000000        11.581000000        32.416000000 H         1 UNK      0.423800000
     1318 O            13.686000000        16.773000000        53.061000000 O.3       1 UNK     -0.847600000
     1319 H            12.988000000        17.410000000        53.392000000 H         1 UNK      0.423800000
     1320 H            13.321000000        16.228000000        52.307000000 H         1 UNK      0.423800000
     1321 O            26.790000000         7.437000000        20.745000000 O.3       1 UNK     -0.847600000
     1322 H            27.166000000         8.344000000        20.546000000 H         1 UNK      0.423800000
     1323 H            27.407000000         6.937000000        21.351000000 H         1 UNK      0.423800000
     1324 O            45.421000000        29.124000000        17.571000000 O.3       1 UNK     -0.847600000
     1325 H            45.578000000        28.879000000        16.613000000 H         1 UNK      0.423800000
     1326 H            44.504000000        29.506000000        17.680000000 H         1 UNK      0.423800000
     1327 O            38.156000000         7.856000000        19.846000000 O.3       1 UNK     -0.847600000
     1328 H            38.227000000         8.551000000        20.563000000 H         1 UNK      0.423800000
     1329 H            39.030000000         7.383000000        19.741000000 H         1 UNK      0.423800000
     1330 O            42.475000000        25.198000000        45.371000000 O.3       1 UNK     -0.847600000
     1331 H            42.081000000        25.019000000        44.469000000 H         1 UNK      0.423800000
     1332 H            41.851000000        24.881000000        46.085000000 H         1 UNK      0.423800000
     1333 O            36.174000000        15.899000000        33.752000000 O.3       1 UNK     -0.847600000
     1334 H            35.695000000        15.792000000        32.880000000 H         1 UNK      0.423800000
     1335 H            37.160000000        15.816000000        33.613000000 H         1 UNK      0.423800000
     1336 O            31.297000000        17.017000000        43.138000000 O.3       1 UNK     -0.847600000
     1337 H            30.595000000        17.571000000        42.688000000 H         1 UNK      0.423800000
     1338 H            30.875000000        16.423000000        43.822000000 H         1 UNK      0.423800000
     1339 O            11.757000000        23.037000000        58.116000000 O.3       1 UNK     -0.847600000
     1340 H            12.078000000        23.619000000        57.366000000 H         1 UNK      0.423800000
     1341 H            12.228000000        23.281000000        58.963000000 H         1 UNK      0.423800000
     1342 O            27.823000000        13.095000000        31.892000000 O.3       1 UNK     -0.847600000
     1343 H            28.043000000        12.154000000        31.629000000 H         1 UNK      0.423800000
     1344 H            28.028000000        13.717000000        31.137000000 H         1 UNK      0.423800000
     1345 O            24.839000000        34.146000000        37.960000000 O.3       1 UNK     -0.847600000
     1346 H            24.388000000        34.643000000        37.217000000 H         1 UNK      0.423800000
     1347 H            24.452000000        34.422000000        38.839000000 H         1 UNK      0.423800000
     1348 O            23.779000000        14.636000000        59.267000000 O.3       1 UNK     -0.847600000
     1349 H            23.225000000        14.788000000        60.087000000 H         1 UNK      0.423800000
     1350 H            24.028000000        15.512000000        58.855000000 H         1 UNK      0.423800000
     1351 O            46.535000000        21.375000000        22.998000000 O.3       1 UNK     -0.847600000
     1352 H            46.707000000        22.329000000        22.749000000 H         1 UNK      0.423800000
     1353 H            46.571000000        21.270000000        23.991000000 H         1 UNK      0.423800000
     1354 O            39.081000000         7.480000000        23.781000000 O.3       1 UNK     -0.847600000
     1355 H            39.806000000         7.204000000        23.148000000 H         1 UNK      0.423800000
     1356 H            39.150000000         6.957000000        24.630000000 H         1 UNK      0.423800000
     1357 O            29.346000000        28.386000000        31.140000000 O.3       1 UNK     -0.847600000
     1358 H            29.387000000        28.812000000        30.235000000 H         1 UNK      0.423800000
     1359 H            30.235000000        28.458000000        31.592000000 H         1 UNK      0.423800000
     1360 O            42.511000000        16.724000000        59.229000000 O.3       1 UNK     -0.847600000
     1361 H            42.608000000        17.648000000        59.601000000 H         1 UNK      0.423800000
     1362 H            43.357000000        16.449000000        58.773000000 H         1 UNK      0.423800000
     1363 O            15.153000000        37.020000000        60.696000000 O.3       1 UNK     -0.847600000
     1364 H            14.408000000        36.353000000        60.646000000 H         1 UNK      0.423800000
     1365 H            15.775000000        36.897000000        59.923000000 H         1 UNK      0.423800000
     1366 O            23.613000000        40.114000000        49.671000000 O.3       1 UNK     -0.847600000
     1367 H            24.234000000        39.436000000        50.067000000 H         1 UNK      0.423800000
     1368 H            23.866000000        40.295000000        48.721000000 H         1 UNK      0.423800000
     1369 O            16.926000000        30.301000000        60.229000000 O.3       1 UNK     -0.847600000
     1370 H            15.991000000        30.538000000        59.959000000 H         1 UNK      0.423800000
     1371 H            16.944000000        30.027000000        61.190000000 H         1 UNK      0.423800000
     1372 O            12.062000000        32.644000000        46.996000000 O.3       1 UNK     -0.847600000
     1373 H            11.198000000        33.146000000        46.926000000 H         1 UNK      0.423800000
     1374 H            11.941000000        31.834000000        47.569000000 H         1 UNK      0.423800000
     1375 O            17.196000000         9.738000000        39.012000000 O.3       1 UNK     -0.847600000
     1376 H            16.351000000        10.211000000        38.757000000 H         1 UNK      0.423800000
     1377 H            17.310000000         9.755000000        40.005000000 H         1 UNK      0.423800000
     1378 O            39.415000000        22.816000000        40.696000000 O.3       1 UNK     -0.847600000
     1379 H            38.681000000        23.261000000        41.212000000 H         1 UNK      0.423800000
     1380 H            39.114000000        22.634000000        39.761000000 H         1 UNK      0.423800000
     1381 O            30.778000000        33.323000000        47.097000000 O.3       1 UNK     -0.847600000
     1382 H            30.764000000        33.360000000        46.097000000 H         1 UNK      0.423800000
     1383 H            30.008000000        32.780000000        47.430000000 H         1 UNK      0.423800000
     1384 O            25.645000000        21.645000000        15.768000000 O.3       1 UNK     -0.847600000
     1385 H            25.680000000        22.476000000        15.210000000 H         1 UNK      0.423800000
     1386 H            25.828000000        20.844000000        15.200000000 H         1 UNK      0.423800000
     1387 O            16.887000000        40.946000000        44.930000000 O.3       1 UNK     -0.847600000
     1388 H            16.679000000        41.421000000        44.074000000 H         1 UNK      0.423800000
     1389 H            16.198000000        40.246000000        45.109000000 H         1 UNK      0.423800000
     1390 O            16.361000000        46.190000000        53.498000000 O.3       1 UNK     -0.847600000
     1391 H            16.567000000        47.097000000        53.869000000 H         1 UNK      0.423800000
     1392 H            15.981000000        46.275000000        52.578000000 H         1 UNK      0.423800000
     1393 O            14.036000000        21.290000000        30.589000000 O.3       1 UNK     -0.847600000
     1394 H            13.531000000        20.700000000        31.221000000 H         1 UNK      0.423800000
     1395 H            14.852000000        21.653000000        31.038000000 H         1 UNK      0.423800000
     1396 O            27.897000000        10.854000000        40.639000000 O.3       1 UNK     -0.847600000
     1397 H            27.673000000         9.989000000        41.091000000 H         1 UNK      0.423800000
     1398 H            28.359000000        10.676000000        39.771000000 H         1 UNK      0.423800000
     1399 O            28.164000000        29.427000000        48.091000000 O.3       1 UNK     -0.847600000
     1400 H            29.094000000        29.471000000        47.723000000 H         1 UNK      0.423800000
     1401 H            27.499000000        29.543000000        47.354000000 H         1 UNK      0.423800000
     1402 O             4.074000000        33.730000000        34.949000000 O.3       1 UNK     -0.847600000
     1403 H             3.742000000        34.168000000        34.113000000 H         1 UNK      0.423800000
     1404 H             3.498000000        33.990000000        35.723000000 H         1 UNK      0.423800000
     1405 O            31.854000000         1.852000000        44.353000000 O.3       1 UNK     -0.847600000
     1406 H            31.455000000         2.278000000        43.539000000 H         1 UNK      0.423800000
     1407 H            31.129000000         1.501000000        44.944000000 H         1 UNK      0.423800000
     1408 O            34.647000000         1.885000000        43.145000000 O.3       1 UNK     -0.847600000
     1409 H            33.967000000         2.323000000        42.556000000 H         1 UNK      0.423800000
     1410 H            34.721000000         2.381000000        44.009000000 H         1 UNK      0.423800000
     1411 O            37.795000000        32.683000000        24.694000000 O.3       1 UNK     -0.847600000
     1412 H            36.916000000        32.465000000        25.120000000 H         1 UNK      0.423800000
     1413 H            37.869000000        32.224000000        23.810000000 H         1 UNK      0.423800000
     1414 O            14.190000000        48.191000000        52.379000000 O.3       1 UNK     -0.847600000
     1415 H            14.188000000        48.568000000        53.307000000 H         1 UNK      0.423800000
     1416 H            13.313000000        48.373000000        51.935000000 H         1 UNK      0.423800000
     1417 O            34.431000000        30.738000000        46.435000000 O.3       1 UNK     -0.847600000
     1418 H            33.744000000        30.516000000        47.129000000 H         1 UNK      0.423800000
     1419 H            35.133000000        31.332000000        46.827000000 H         1 UNK      0.423800000
     1420 O            11.957000000        39.056000000        31.384000000 O.3       1 UNK     -0.847600000
     1421 H            12.735000000        38.737000000        31.927000000 H         1 UNK      0.423800000
     1422 H            11.513000000        39.825000000        31.843000000 H         1 UNK      0.423800000
     1423 O            36.439000000        35.984000000        42.774000000 O.3       1 UNK     -0.847600000
     1424 H            35.547000000        35.529000000        42.758000000 H         1 UNK      0.423800000
     1425 H            36.472000000        36.696000000        42.073000000 H         1 UNK      0.423800000
     1426 O            11.841000000        33.250000000        38.127000000 O.3       1 UNK     -0.847600000
     1427 H            12.391000000        33.045000000        38.938000000 H         1 UNK      0.423800000
     1428 H            12.426000000        33.287000000        37.318000000 H         1 UNK      0.423800000
     1429 O             4.955000000        28.169000000        27.789000000 O.3       1 UNK     -0.847600000
     1430 H             4.270000000        27.582000000        28.220000000 H         1 UNK      0.423800000
     1431 H             4.536000000        28.699000000        27.052000000 H         1 UNK      0.423800000
     1432 O            29.999000000        47.383000000        15.015000000 O.3       1 UNK     -0.847600000
     1433 H            30.672000000        46.816000000        15.493000000 H         1 UNK      0.423800000
     1434 H            29.332000000        47.743000000        15.667000000 H         1 UNK      0.423800000
     1435 O            20.104000000        13.274000000        38.616000000 O.3       1 UNK     -0.847600000
     1436 H            19.192000000        13.598000000        38.361000000 H         1 UNK      0.423800000
     1437 H            20.218000000        13.321000000        39.608000000 H         1 UNK      0.423800000
     1438 O            35.184000000        49.111000000        37.034000000 O.3       1 UNK     -0.847600000
     1439 H            35.423000000        49.544000000        36.164000000 H         1 UNK      0.423800000
     1440 H            35.357000000        48.128000000        36.985000000 H         1 UNK      0.423800000
     1441 O            22.825000000        33.467000000        43.851000000 O.3       1 UNK     -0.847600000
     1442 H            22.657000000        34.216000000        43.210000000 H         1 UNK      0.423800000
     1443 H            22.937000000        32.608000000        43.352000000 H         1 UNK      0.423800000
     1444 O            17.834000000        22.077000000        41.080000000 O.3       1 UNK     -0.847600000
     1445 H            18.449000000        22.758000000        40.681000000 H         1 UNK      0.423800000
     1446 H            18.328000000        21.520000000        41.747000000 H         1 UNK      0.423800000
     1447 O            42.040000000        43.332000000        30.004000000 O.3       1 UNK     -0.847600000
     1448 H            42.287000000        42.669000000        30.713000000 H         1 UNK      0.423800000
     1449 H            41.899000000        42.864000000        29.133000000 H         1 UNK      0.423800000
     1450 O            40.538000000        40.765000000        37.516000000 O.3       1 UNK     -0.847600000
     1451 H            40.866000000        39.851000000        37.759000000 H         1 UNK      0.423800000
     1452 H            40.215000000        41.241000000        38.333000000 H         1 UNK      0.423800000
     1453 O            32.997000000        41.088000000        24.035000000 O.3       1 UNK     -0.847600000
     1454 H            32.637000000        40.506000000        24.766000000 H         1 UNK      0.423800000
     1455 H            32.276000000        41.687000000        23.689000000 H         1 UNK      0.423800000
     1456 O            11.366000000        28.721000000        30.328000000 O.3       1 UNK     -0.847600000
     1457 H            11.950000000        28.408000000        29.578000000 H         1 UNK      0.423800000
     1458 H            11.674000000        28.322000000        31.191000000 H         1 UNK      0.423800000
     1459 O            37.082000000        17.031000000        56.561000000 O.3       1 UNK     -0.847600000
     1460 H            36.636000000        17.000000000        57.457000000 H         1 UNK      0.423800000
     1461 H            36.404000000        17.199000000        55.847000000 H         1 UNK      0.423800000
     1462 O            12.248000000        39.862000000        37.683000000 O.3       1 UNK     -0.847600000
     1463 H            12.990000000        39.190000000        37.670000000 H         1 UNK      0.423800000
     1464 H            11.873000000        39.939000000        38.606000000 H         1 UNK      0.423800000
     1465 O            11.433000000        23.162000000        30.067000000 O.3       1 UNK     -0.847600000
     1466 H            11.254000000        22.390000000        30.679000000 H         1 UNK      0.423800000
     1467 H            11.748000000        22.828000000        29.180000000 H         1 UNK      0.423800000
     1468 O            36.133000000         6.645000000        30.744000000 O.3       1 UNK     -0.847600000
     1469 H            35.615000000         7.471000000        30.522000000 H         1 UNK      0.423800000
     1470 H            37.112000000         6.819000000        30.645000000 H         1 UNK      0.423800000
     1471 O            36.728000000        47.351000000        34.211000000 O.3       1 UNK     -0.847600000
     1472 H            36.924000000        47.663000000        33.281000000 H         1 UNK      0.423800000
     1473 H            36.576000000        48.137000000        34.810000000 H         1 UNK      0.423800000
     1474 O            34.451000000        33.206000000        43.321000000 O.3       1 UNK     -0.847600000
     1475 H            34.000000000        32.594000000        42.670000000 H         1 UNK      0.423800000
     1476 H            35.428000000        33.001000000        43.362000000 H         1 UNK      0.423800000
     1477 O            45.641000000        37.015000000        51.542000000 O.3       1 UNK     -0.847600000
     1478 H            46.543000000        36.713000000        51.855000000 H         1 UNK      0.423800000
     1479 H            45.734000000        37.559000000        50.709000000 H         1 UNK      0.423800000
     1480 O             4.869000000        24.873000000        51.866000000 O.3       1 UNK     -0.847600000
     1481 H             5.573000000        24.283000000        52.264000000 H         1 UNK      0.423800000
     1482 H             5.122000000        25.125000000        50.933000000 H         1 UNK      0.423800000
     1483 O            37.076000000        46.421000000        50.742000000 O.3       1 UNK     -0.847600000
     1484 H            36.951000000        45.461000000        50.998000000 H         1 UNK      0.423800000
     1485 H            37.316000000        46.489000000        49.775000000 H         1 UNK      0.423800000
     1486 O            44.026000000        44.304000000        57.201000000 O.3       1 UNK     -0.847600000
     1487 H            43.414000000        43.556000000        57.463000000 H         1 UNK      0.423800000
     1488 H            44.450000000        44.105000000        56.318000000 H         1 UNK      0.423800000
     1489 O            36.760000000        21.030000000        57.386000000 O.3       1 UNK     -0.847600000
     1490 H            36.816000000        20.033000000        57.460000000 H         1 UNK      0.423800000
     1491 H            37.230000000        21.337000000        56.559000000 H         1 UNK      0.423800000
     1492 O            29.662000000        26.198000000        35.628000000 O.3       1 UNK     -0.847600000
     1493 H            30.611000000        25.912000000        35.765000000 H         1 UNK      0.423800000
     1494 H            29.629000000        27.168000000        35.391000000 H         1 UNK      0.423800000
     1495 O            44.315000000        32.554000000        50.302000000 O.3       1 UNK     -0.847600000
     1496 H            44.611000000        32.771000000        49.371000000 H         1 UNK      0.423800000
     1497 H            44.660000000        33.241000000        50.940000000 H         1 UNK      0.423800000
     1498 O            34.870000000        35.747000000        17.807000000 O.3       1 UNK     -0.847600000
     1499 H            34.353000000        36.594000000        17.675000000 H         1 UNK      0.423800000
     1500 H            34.244000000        34.969000000        17.856000000 H         1 UNK      0.423800000
     1501 O            27.736000000        47.493000000        57.237000000 O.3       1 UNK     -0.847600000
     1502 H            26.881000000        47.286000000        56.758000000 H         1 UNK      0.423800000
     1503 H            27.548000000        47.698000000        58.196000000 H         1 UNK      0.423800000
     1504 O            16.612000000        10.768000000        18.612000000 O.3       1 UNK     -0.847600000
     1505 H            17.556000000        11.093000000        18.538000000 H         1 UNK      0.423800000
     1506 H            16.226000000        10.628000000        17.701000000 H         1 UNK      0.423800000
     1507 O             6.890000000        33.817000000        32.649000000 O.3       1 UNK     -0.847600000
     1508 H             6.857000000        34.480000000        33.398000000 H         1 UNK      0.423800000
     1509 H             6.056000000        33.267000000        32.643000000 H         1 UNK      0.423800000
     1510 O             5.502000000        27.190000000        41.212000000 O.3       1 UNK     -0.847600000
     1511 H             5.745000000        27.071000000        42.176000000 H         1 UNK      0.423800000
     1512 H             6.177000000        27.770000000        40.759000000 H         1 UNK      0.423800000
     1513 O            28.530000000         3.231000000        36.209000000 O.3       1 UNK     -0.847600000
     1514 H            28.970000000         4.081000000        35.916000000 H         1 UNK      0.423800000
     1515 H            28.802000000         3.011000000        37.145000000 H         1 UNK      0.423800000
     1516 O            41.729000000        26.860000000        51.709000000 O.3       1 UNK     -0.847600000
     1517 H            42.455000000        26.298000000        51.310000000 H         1 UNK      0.423800000
     1518 H            41.344000000        27.465000000        51.012000000 H         1 UNK      0.423800000
     1519 O            22.525000000        13.875000000        36.822000000 O.3       1 UNK     -0.847600000
     1520 H            22.666000000        12.886000000        36.886000000 H         1 UNK      0.423800000
     1521 H            21.758000000        14.148000000        37.401000000 H         1 UNK      0.423800000
     1522 O            29.712000000         7.566000000        42.165000000 O.3       1 UNK     -0.847600000
     1523 H            29.493000000         8.518000000        42.384000000 H         1 UNK      0.423800000
     1524 H            29.999000000         7.083000000        42.991000000 H         1 UNK      0.423800000
     1525 O             8.324000000        31.943000000        47.237000000 O.3       1 UNK     -0.847600000
     1526 H             7.362000000        32.217000000        47.202000000 H         1 UNK      0.423800000
     1527 H             8.869000000        32.531000000        46.641000000 H         1 UNK      0.423800000
     1528 O            23.684000000        11.418000000        31.698000000 O.3       1 UNK     -0.847600000
     1529 H            22.727000000        11.707000000        31.656000000 H         1 UNK      0.423800000
     1530 H            23.819000000        10.792000000        32.466000000 H         1 UNK      0.423800000
     1531 O            14.672000000        16.087000000        43.715000000 O.3       1 UNK     -0.847600000
     1532 H            15.215000000        16.790000000        44.176000000 H         1 UNK      0.423800000
     1533 H            14.647000000        15.256000000        44.270000000 H         1 UNK      0.423800000
     1534 O             6.286000000        23.556000000        26.710000000 O.3       1 UNK     -0.847600000
     1535 H             7.052000000        23.558000000        26.065000000 H         1 UNK      0.423800000
     1536 H             5.533000000        23.010000000        26.343000000 H         1 UNK      0.423800000
     1537 O            16.958000000         7.894000000        30.186000000 O.3       1 UNK     -0.847600000
     1538 H            17.875000000         7.687000000        29.842000000 H         1 UNK      0.423800000
     1539 H            16.697000000         8.823000000        29.926000000 H         1 UNK      0.423800000
     1540 O            19.835000000        21.147000000        52.092000000 O.3       1 UNK     -0.847600000
     1541 H            20.263000000        20.667000000        52.860000000 H         1 UNK      0.423800000
     1542 H            19.112000000        20.583000000        51.697000000 H         1 UNK      0.423800000
     1543 O            35.689000000        43.707000000        36.897000000 O.3       1 UNK     -0.847600000
     1544 H            36.658000000        43.459000000        36.873000000 H         1 UNK      0.423800000
     1545 H            35.153000000        43.041000000        36.380000000 H         1 UNK      0.423800000
     1546 O            33.727000000        12.285000000        41.035000000 O.3       1 UNK     -0.847600000
     1547 H            32.813000000        12.364000000        40.635000000 H         1 UNK      0.423800000
     1548 H            34.414000000        12.234000000        40.311000000 H         1 UNK      0.423800000
     1549 O            45.422000000        44.464000000        31.581000000 O.3       1 UNK     -0.847600000
     1550 H            44.844000000        45.006000000        32.192000000 H         1 UNK      0.423800000
     1551 H            46.266000000        44.205000000        32.049000000 H         1 UNK      0.423800000
     1552 O             3.946000000        32.351000000        44.907000000 O.3       1 UNK     -0.847600000
     1553 H             4.844000000        32.189000000        45.320000000 H         1 UNK      0.423800000
     1554 H             3.397000000        32.936000000        45.503000000 H         1 UNK      0.423800000
     1555 O            47.200000000        47.716000000        34.540000000 O.3       1 UNK     -0.847600000
     1556 H            46.518000000        48.022000000        33.875000000 H         1 UNK      0.423800000
     1557 H            47.350000000        48.426000000        35.227000000 H         1 UNK      0.423800000
     1558 O            30.683000000        43.777000000        15.511000000 O.3       1 UNK     -0.847600000
     1559 H            29.761000000        43.624000000        15.871000000 H         1 UNK      0.423800000
     1560 H            31.243000000        44.245000000        16.193000000 H         1 UNK      0.423800000
     1561 O            18.659000000        18.827000000        59.619000000 O.3       1 UNK     -0.847600000
     1562 H            17.777000000        19.030000000        59.192000000 H         1 UNK      0.423800000
     1563 H            19.404000000        19.090000000        59.006000000 H         1 UNK      0.423800000
     1564 O            41.448000000        35.495000000        47.094000000 O.3       1 UNK     -0.847600000
     1565 H            40.905000000        36.303000000        47.328000000 H         1 UNK      0.423800000
     1566 H            41.729000000        35.538000000        46.136000000 H         1 UNK      0.423800000
     1567 O            36.469000000         6.709000000        56.776000000 O.3       1 UNK     -0.847600000
     1568 H            35.521000000         6.876000000        56.502000000 H         1 UNK      0.423800000
     1569 H            37.015000000         7.534000000        56.638000000 H         1 UNK      0.423800000
     1570 O            14.974000000        40.338000000        34.578000000 O.3       1 UNK     -0.847600000
     1571 H            15.443000000        39.566000000        35.008000000 H         1 UNK      0.423800000
     1572 H            15.220000000        40.392000000        33.611000000 H         1 UNK      0.423800000
     1573 O            22.712000000        17.804000000        39.750000000 O.3       1 UNK     -0.847600000
     1574 H            23.652000000        17.480000000        39.634000000 H         1 UNK      0.423800000
     1575 H            22.668000000        18.467000000        40.496000000 H         1 UNK      0.423800000
     1576 O            44.140000000        18.871000000        56.062000000 O.3       1 UNK     -0.847600000
     1577 H            44.936000000        18.336000000        55.775000000 H         1 UNK      0.423800000
     1578 H            43.530000000        19.020000000        55.284000000 H         1 UNK      0.423800000
     1579 O            11.487000000        48.001000000        44.596000000 O.3       1 UNK     -0.847600000
     1580 H            10.660000000        47.580000000        44.971000000 H         1 UNK      0.423800000
     1581 H            11.662000000        47.650000000        43.677000000 H         1 UNK      0.423800000
     1582 O            17.847000000        17.702000000        31.819000000 O.3       1 UNK     -0.847600000
     1583 H            17.679000000        18.687000000        31.758000000 H         1 UNK      0.423800000
     1584 H            16.986000000        17.202000000        31.725000000 H         1 UNK      0.423800000
     1585 O            39.611000000        36.316000000        49.454000000 O.3       1 UNK     -0.847600000
     1586 H            38.631000000        36.113000000        49.444000000 H         1 UNK      0.423800000
     1587 H            39.774000000        37.231000000        49.087000000 H         1 UNK      0.423800000
     1588 O             3.067000000        11.057000000        26.909000000 O.3       1 UNK     -0.847600000
     1589 H             3.664000000        10.262000000        26.788000000 H         1 UNK      0.423800000
     1590 H             2.326000000        10.835000000        27.542000000 H         1 UNK      0.423800000
     1591 O            32.638000000         2.559000000        53.463000000 O.3       1 UNK     -0.847600000
     1592 H            32.158000000         1.694000000        53.616000000 H         1 UNK      0.423800000
     1593 H            32.051000000         3.325000000        53.721000000 H         1 UNK      0.423800000
     1594 O            11.720000000        42.060000000        58.656000000 O.3       1 UNK     -0.847600000
     1595 H            11.617000000        42.041000000        57.660000000 H         1 UNK      0.423800000
     1596 H            11.300000000        41.247000000        59.058000000 H         1 UNK      0.423800000
     1597 O            20.818000000        23.559000000        21.868000000 O.3       1 UNK     -0.847600000
     1598 H            20.119000000        22.880000000        21.640000000 H         1 UNK      0.423800000
     1599 H            20.551000000        24.061000000        22.690000000 H         1 UNK      0.423800000
     1600 O            28.717000000        46.689000000        50.599000000 O.3       1 UNK     -0.847600000
     1601 H            28.458000000        46.686000000        51.566000000 H         1 UNK      0.423800000
     1602 H            28.264000000        45.938000000        50.121000000 H         1 UNK      0.423800000
     1603 O            31.131000000        18.165000000        25.364000000 O.3       1 UNK     -0.847600000
     1604 H            30.846000000        17.227000000        25.163000000 H         1 UNK      0.423800000
     1605 H            31.870000000        18.436000000        24.748000000 H         1 UNK      0.423800000
     1606 O            40.904000000        46.370000000        33.793000000 O.3       1 UNK     -0.847600000
     1607 H            40.199000000        46.779000000        34.374000000 H         1 UNK      0.423800000
     1608 H            41.442000000        47.087000000        33.353000000 H         1 UNK      0.423800000
     1609 O            20.736000000        31.584000000        44.923000000 O.3       1 UNK     -0.847600000
     1610 H            19.963000000        31.785000000        44.319000000 H         1 UNK      0.423800000
     1611 H            20.832000000        32.307000000        45.606000000 H         1 UNK      0.423800000
     1612 O            28.209000000        40.694000000        33.297000000 O.3       1 UNK     -0.847600000
     1613 H            28.293000000        39.763000000        32.941000000 H         1 UNK      0.423800000
     1614 H            27.812000000        40.675000000        34.215000000 H         1 UNK      0.423800000
     1615 O            30.282000000        20.048000000        47.223000000 O.3       1 UNK     -0.847600000
     1616 H            29.580000000        20.749000000        47.359000000 H         1 UNK      0.423800000
     1617 H            29.963000000        19.171000000        47.581000000 H         1 UNK      0.423800000
     1618 O             9.338000000        29.441000000        24.050000000 O.3       1 UNK     -0.847600000
     1619 H            10.082000000        29.669000000        23.420000000 H         1 UNK      0.423800000
     1620 H             9.104000000        28.473000000        23.967000000 H         1 UNK      0.423800000
     1621 O            38.680000000         2.024000000        17.171000000 O.3       1 UNK     -0.847600000
     1622 H            39.588000000         2.280000000        17.505000000 H         1 UNK      0.423800000
     1623 H            38.182000000         1.527000000        17.882000000 H         1 UNK      0.423800000
     1624 O             7.083000000        22.084000000        52.631000000 O.3       1 UNK     -0.847600000
     1625 H             7.923000000        21.555000000        52.499000000 H         1 UNK      0.423800000
     1626 H             6.321000000        21.469000000        52.832000000 H         1 UNK      0.423800000
     1627 O            26.010000000        41.893000000        59.110000000 O.3       1 UNK     -0.847600000
     1628 H            25.200000000        41.374000000        58.835000000 H         1 UNK      0.423800000
     1629 H            25.913000000        42.200000000        60.056000000 H         1 UNK      0.423800000
     1630 O            21.422000000        31.592000000        14.551000000 O.3       1 UNK     -0.847600000
     1631 H            20.525000000        32.012000000        14.700000000 H         1 UNK      0.423800000
     1632 H            21.362000000        30.603000000        14.678000000 H         1 UNK      0.423800000
     1633 O            39.819000000        11.741000000        58.236000000 O.3       1 UNK     -0.847600000
     1634 H            40.062000000        12.713000000        58.244000000 H         1 UNK      0.423800000
     1635 H            40.216000000        11.297000000        57.434000000 H         1 UNK      0.423800000
     1636 O            44.673000000        12.527000000        41.702000000 O.3       1 UNK     -0.847600000
     1637 H            44.793000000        12.095000000        40.807000000 H         1 UNK      0.423800000
     1638 H            45.564000000        12.737000000        42.102000000 H         1 UNK      0.423800000
     1639 O            20.998000000         7.227000000        39.233000000 O.3       1 UNK     -0.847600000
     1640 H            21.821000000         7.264000000        38.664000000 H         1 UNK      0.423800000
     1641 H            20.291000000         7.819000000        38.850000000 H         1 UNK      0.423800000
     1642 O            12.104000000        26.249000000        38.396000000 O.3       1 UNK     -0.847600000
     1643 H            11.735000000        27.087000000        38.800000000 H         1 UNK      0.423800000
     1644 H            11.934000000        26.240000000        37.412000000 H         1 UNK      0.423800000
     1645 O            36.908000000        28.220000000        23.758000000 O.3       1 UNK     -0.847600000
     1646 H            37.837000000        27.850000000        23.695000000 H         1 UNK      0.423800000
     1647 H            36.843000000        29.071000000        23.239000000 H         1 UNK      0.423800000
     1648 O            31.509000000        34.859000000        17.961000000 O.3       1 UNK     -0.847600000
     1649 H            30.746000000        34.664000000        18.580000000 H         1 UNK      0.423800000
     1650 H            31.247000000        34.651000000        17.020000000 H         1 UNK      0.423800000
     1651 O             5.712000000        46.277000000        37.826000000 O.3       1 UNK     -0.847600000
     1652 H             6.422000000        46.980000000        37.777000000 H         1 UNK      0.423800000
     1653 H             5.635000000        45.933000000        38.761000000 H         1 UNK      0.423800000
     1654 O            21.938000000         8.970000000        35.011000000 O.3       1 UNK     -0.847600000
     1655 H            20.939000000         8.975000000        34.943000000 H         1 UNK      0.423800000
     1656 H            22.253000000         9.793000000        35.483000000 H         1 UNK      0.423800000
     1657 O            33.810000000        22.021000000        52.185000000 O.3       1 UNK     -0.847600000
     1658 H            34.558000000        21.490000000        51.783000000 H         1 UNK      0.423800000
     1659 H            34.143000000        22.539000000        52.972000000 H         1 UNK      0.423800000
     1660 O            33.841000000        36.864000000        21.141000000 O.3       1 UNK     -0.847600000
     1661 H            33.002000000        37.360000000        20.914000000 H         1 UNK      0.423800000
     1662 H            34.631000000        37.328000000        20.741000000 H         1 UNK      0.423800000
     1663 O            24.684000000        48.113000000        40.885000000 O.3       1 UNK     -0.847600000
     1664 H            25.656000000        47.882000000        40.955000000 H         1 UNK      0.423800000
     1665 H            24.551000000        48.824000000        40.196000000 H         1 UNK      0.423800000
     1666 O            24.692000000        35.066000000        49.485000000 O.3       1 UNK     -0.847600000
     1667 H            25.118000000        35.741000000        50.089000000 H         1 UNK      0.423800000
     1668 H            24.326000000        34.309000000        50.024000000 H         1 UNK      0.423800000
     1669 O            33.408000000        43.406000000        29.573000000 O.3       1 UNK     -0.847600000
     1670 H            34.284000000        43.652000000        29.990000000 H         1 UNK      0.423800000
     1671 H            33.458000000        43.523000000        28.581000000 H         1 UNK      0.423800000
     1672 O            36.412000000        28.677000000        36.810000000 O.3       1 UNK     -0.847600000
     1673 H            37.199000000        28.783000000        37.420000000 H         1 UNK      0.423800000
     1674 H            36.581000000        27.937000000        36.160000000 H         1 UNK      0.423800000
     1675 O            10.683000000         7.626000000        50.366000000 O.3       1 UNK     -0.847600000
     1676 H             9.773000000         7.474000000        49.976000000 H         1 UNK      0.423800000
     1677 H            10.601000000         8.004000000        51.287000000 H         1 UNK      0.423800000
     1678 O            26.098000000        33.307000000        31.709000000 O.3       1 UNK     -0.847600000
     1679 H            26.154000000        33.902000000        30.907000000 H         1 UNK      0.423800000
     1680 H            27.014000000        33.135000000        32.071000000 H         1 UNK      0.423800000
     1681 O             4.453000000         4.862000000        45.390000000 O.3       1 UNK     -0.847600000
     1682 H             5.352000000         4.939000000        45.822000000 H         1 UNK      0.423800000
     1683 H             4.293000000         5.646000000        44.791000000 H         1 UNK      0.423800000
     1684 O            21.638000000         3.684000000        30.692000000 O.3       1 UNK     -0.847600000
     1685 H            21.518000000         2.703000000        30.534000000 H         1 UNK      0.423800000
     1686 H            22.094000000         4.102000000        29.907000000 H         1 UNK      0.423800000
     1687 O            45.577000000         3.273000000        31.966000000 O.3       1 UNK     -0.847600000
     1688 H            46.517000000         3.609000000        31.898000000 H         1 UNK      0.423800000
     1689 H            45.545000000         2.461000000        32.547000000 H         1 UNK      0.423800000
     1690 O            24.910000000        34.900000000        57.622000000 O.3       1 UNK     -0.847600000
     1691 H            24.095000000        34.533000000        58.074000000 H         1 UNK      0.423800000
     1692 H            25.705000000        34.334000000        57.840000000 H         1 UNK      0.423800000
     1693 O            33.036000000        43.108000000        49.926000000 O.3       1 UNK     -0.847600000
     1694 H            33.175000000        42.481000000        49.158000000 H         1 UNK      0.423800000
     1695 H            33.912000000        43.487000000        50.221000000 H         1 UNK      0.423800000
     1696 O            25.571000000        26.012000000        28.665000000 O.3       1 UNK     -0.847600000
     1697 H            26.340000000        25.516000000        29.071000000 H         1 UNK      0.423800000
     1698 H            25.830000000        26.368000000        27.768000000 H         1 UNK      0.423800000
     1699 O            26.610000000        18.284000000        41.727000000 O.3       1 UNK     -0.847600000
     1700 H            26.115000000        17.504000000        42.112000000 H         1 UNK      0.423800000
     1701 H            26.939000000        18.062000000        40.810000000 H         1 UNK      0.423800000
     1702 O            35.636000000        24.601000000        15.685000000 O.3       1 UNK     -0.847600000
     1703 H            36.563000000        24.967000000        15.590000000 H         1 UNK      0.423800000
     1704 H            35.257000000        24.394000000        14.783000000 H         1 UNK      0.423800000
     1705 O            19.597000000        10.423000000        31.734000000 O.3       1 UNK     -0.847600000
     1706 H            18.694000000        10.679000000        32.082000000 H         1 UNK      0.423800000
     1707 H            19.573000000        10.359000000        30.737000000 H         1 UNK      0.423800000
     1708 O            22.969000000        14.813000000        20.272000000 O.3       1 UNK     -0.847600000
     1709 H            23.955000000        14.909000000        20.423000000 H         1 UNK      0.423800000
     1710 H            22.467000000        15.183000000        21.053000000 H         1 UNK      0.423800000
     1711 C             0.000000000         0.709005672        67.196000000 C.ar      1 UNK      0.000000000
     1712 C             0.000000000         3.544977312        67.196000000 C.ar      1 UNK      0.000000000
     1713 C             1.228000000         2.836022688        67.196000000 C.ar      1 UNK      0.000000000
     1714 C             1.228000000         1.418011344        67.196000000 C.ar      1 UNK      0.000000000
     1715 C             2.456000000         0.709005672        67.196000000 C.ar      1 UNK      0.000000000
     1716 C             2.456000000         3.544977312        67.196000000 C.ar      1 UNK      0.000000000
     1717 C             3.684000000         2.836022688        67.196000000 C.ar      1 UNK      0.000000000
     1718 C             3.684000000         1.418011344        67.196000000 C.ar      1 UNK      0.000000000
     1719 C             4.912000000         0.709005672        67.196000000 C.ar      1 UNK      0.000000000
     1720 C             4.912000000         3.544977312        67.196000000 C.ar      1 UNK      0.000000000
     1721 C             6.140000000         2.836022688        67.196000000 C.ar      1 UNK      0.000000000
     1722 C             6.140000000         1.418011344        67.196000000 C.ar      1 UNK      0.000000000
     1723 C             7.368000000         0.709005672        67.196000000 C.ar      1 UNK      0.000000000
     1724 C             7.368000000         3.544977312        67.196000000 C.ar      1 UNK      0.000000000
     1725 C             8.596000000         2.836022688        67.196000000 C.ar      1 UNK      0.000000000
     1726 C             8.596000000         1.418011344        67.196000000 C.ar      1 UNK      0.000000000
     1727 C             9.824000000         0.709005672        67.196000000 C.ar      1 UNK      0.000000000
     1728 C             9.824000000         3.544977312        67.196000000 C.ar      1 UNK      0.000000000
     1729 C            11.052000000         2.836022688        67.196000000 C.ar      1 UNK      0.000000000
     1730 C            11.052000000         1.418011344        67.196000000 C.ar      1 UNK      0.000000000
     1731 C            12.280000000         0.709005672        67.196000000 C.ar      1 UNK      0.000000000
     1732 C            12.280000000         3.544977312        67.196000000 C.ar      1 UNK      0.000000000
     1733 C            13.508000000         2.836022688        67.196000000 C.ar      1 UNK      0.000000000
     1734 C            13.508000000         1.418011344        67.196000000 C.ar      1 UNK      0.000000000
     1735 C            14.736000000         0.709005672        67.196000000 C.ar      1 UNK      0.000000000
     1736 C            14.736000000         3.544977312        67.196000000 C.ar      1 UNK      0.000000000
     1737 C            15.964000000         2.836022688        67.196000000 C.ar      1 UNK      0.000000000
     1738 C            15.964000000         1.418011344        67.196000000 C.ar      1 UNK      0.000000000
     1739 C            17.192000000         0.709005672        67.196000000 C.ar      1 UNK      0.000000000
     1740 C            17.192000000         3.544977312        67.196000000 C.ar      1 UNK      0.000000000
     1741 C            18.420000000         2.836022688        67.196000000 C.ar      1 UNK      0.000000000
     1742 C            18.420000000         1.418011344        67.196000000 C.ar      1 UNK      0.000000000
     1743 C            19.648000000         0.709005672        67.196000000 C.ar      1 UNK      0.000000000
     1744 C            19.648000000         3.544977312        67.196000000 C.ar      1 UNK      0.000000000
     1745 C            20.876000000         2.836022688        67.196000000 C.ar      1 UNK      0.000000000
     1746 C            20.876000000         1.418011344        67.196000000 C.ar      1 UNK      0.000000000
     1747 C            22.104000000         0.709005672        67.196000000 C.ar      1 UNK      0.000000000
     1748 C            22.104000000         3.544977312        67.196000000 C.ar      1 UNK      0.000000000
     1749 C            23.332000000         2.836022688        67.196000000 C.ar      1 UNK      0.000000000
     1750 C            23.332000000         1.418011344        67.196000000 C.ar      1 UNK      0.000000000
     1751 C            24.560000000         0.709005672        67.196000000 C.ar      1 UNK      0.000000000
     1752 C            24.560000000         3.544977312        67.196000000 C.ar      1 UNK      0.000000000
     1753 C            25.788000000         2.836022688        67.196000000 C.ar      1 UNK      0.000000000
     1754 C            25.788000000         1.418011344        67.196000000 C.ar      1 UNK      0.000000000
     1755 C            27.016000000         0.709005672        67.196000000 C.ar      1 UNK      0.000000000
     1756 C            27.016000000         3.544977312        67.196000000 C.ar      1 UNK      0.000000000
     1757 C            28.244000000         2.836022688        67.196000000 C.ar      1 UNK      0.000000000
     1758 C            28.244000000         1.418011344        67.196000000 C.ar      1 UNK      0.000000000
     1759 C            29.472000000         0.709005672        67.196000000 C.ar      1 UNK      0.000000000
     1760 C            29.472000000         3.544977312        67.196000000 C.ar      1 UNK      0.000000000
     1761 C            30.700000000         2.836022688        67.196000000 C.ar      1 UNK      0.000000000
     1762 C            30.700000000         1.418011344        67.196000000 C.ar      1 UNK      0.000000000
     1763 C            31.928000000         0.709005672        67.196000000 C.ar      1 UNK      0.000000000
     1764 C            31.928000000         3.544977312        67.196000000 C.ar      1 UNK      0.000000000
     1765 C            33.156000000         2.836022688        67.196000000 C.ar      1 UNK      0.000000000
     1766 C            33.156000000         1.418011344        67.196000000 C.ar      1 UNK      0.000000000
     1767 C            34.384000000         0.709005672        67.196000000 C.ar      1 UNK      0.000000000
     1768 C            34.384000000         3.544977312        67.196000000 C.ar      1 UNK      0.000000000
     1769 C            35.612000000         2.836022688        67.196000000 C.ar      1 UNK      0.000000000
     1770 C            35.612000000         1.418011344        67.196000000 C.ar      1 UNK      0.000000000
     1771 C            36.840000000         0.709005672        67.196000000 C.ar      1 UNK      0.000000000
     1772 C            36.840000000         3.544977312        67.196000000 C.ar      1 UNK      0.000000000
     1773 C            38.068000000         2.836022688        67.196000000 C.ar      1 UNK      0.000000000
     1774 C            38.068000000         1.418011344        67.196000000 C.ar      1 UNK      0.000000000
     1775 C            39.296000000         0.709005672        67.196000000 C.ar      1 UNK      0.000000000
     1776 C            39.296000000         3.544977312        67.196000000 C.ar      1 UNK      0.000000000
     1777 C            40.524000000         2.836022688        67.196000000 C.ar      1 UNK      0.000000000
     1778 C            40.524000000         1.418011344        67.196000000 C.ar      1 UNK      0.000000000
     1779 C            41.752000000         0.709005672        67.196000000 C.ar      1 UNK      0.000000000
     1780 C            41.752000000         3.544977312        67.196000000 C.ar      1 UNK      0.000000000
     1781 C            42.980000000         2.836022688        67.196000000 C.ar      1 UNK      0.000000000
     1782 C            42.980000000         1.418011344        67.196000000 C.ar      1 UNK      0.000000000
     1783 C            44.208000000         0.709005672        67.196000000 C.ar      1 UNK      0.000000000
     1784 C            44.208000000         3.544977312        67.196000000 C.ar      1 UNK      0.000000000
     1785 C            45.436000000         2.836022688        67.196000000 C.ar      1 UNK      0.000000000
     1786 C            45.436000000         1.418011344        67.196000000 C.ar      1 UNK      0.000000000
     1787 C            46.664000000         0.709005672        67.196000000 C.ar      1 UNK      0.000000000
     1788 C            46.664000000         3.544977312        67.196000000 C.ar      1 UNK      0.000000000
     1789 C            47.892000000         2.836022688        67.196000000 C.ar      1 UNK      0.000000000
     1790 C            47.892000000         1.418011344        67.196000000 C.ar      1 UNK      0.000000000
     1791 C             0.000000000         4.962988656        67.196000000 C.ar      1 UNK      0.000000000
     1792 C             0.000000000         7.799011344        67.196000000 C.ar      1 UNK      0.000000000
     1793 C             1.228000000         7.090005672        67.196000000 C.ar      1 UNK      0.000000000
     1794 C             1.228000000         5.671994328        67.196000000 C.ar      1 UNK      0.000000000
     1795 C             2.456000000         4.962988656        67.196000000 C.ar      1 UNK      0.000000000
     1796 C             2.456000000         7.799011344        67.196000000 C.ar      1 UNK      0.000000000
     1797 C             3.684000000         7.090005672        67.196000000 C.ar      1 UNK      0.000000000
     1798 C             3.684000000         5.671994328        67.196000000 C.ar      1 UNK      0.000000000
     1799 C             4.912000000         4.962988656        67.196000000 C.ar      1 UNK      0.000000000
     1800 C             4.912000000         7.799011344        67.196000000 C.ar      1 UNK      0.000000000
     1801 C             6.140000000         7.090005672        67.196000000 C.ar      1 UNK      0.000000000
     1802 C             6.140000000         5.671994328        67.196000000 C.ar      1 UNK      0.000000000
     1803 C             7.368000000         4.962988656        67.196000000 C.ar      1 UNK      0.000000000
     1804 C             7.368000000         7.799011344        67.196000000 C.ar      1 UNK      0.000000000
     1805 C             8.596000000         7.090005672        67.196000000 C.ar      1 UNK      0.000000000
     1806 C             8.596000000         5.671994328        67.196000000 C.ar      1 UNK      0.000000000
     1807 C             9.824000000         4.962988656        67.196000000 C.ar      1 UNK      0.000000000
     1808 C             9.824000000         7.799011344        67.196000000 C.ar      1 UNK      0.000000000
     1809 C            11.052000000         7.090005672        67.196000000 C.ar      1 UNK      0.000000000
     1810 C            11.052000000         5.671994328        67.196000000 C.ar      1 UNK      0.000000000
     1811 C            12.280000000         4.962988656        67.196000000 C.ar      1 UNK      0.000000000
     1812 C            12.280000000         7.799011344        67.196000000 C.ar      1 UNK      0.000000000
     1813 C            13.508000000         7.090005672        67.196000000 C.ar      1 UNK      0.000000000
     1814 C            13.508000000         5.671994328        67.196000000 C.ar      1 UNK      0.000000000
     1815 C            14.736000000         4.962988656        67.196000000 C.ar      1 UNK      0.000000000
     1816 C            14.736000000         7.799011344        67.196000000 C.ar      1 UNK      0.000000000
     1817 C            15.964000000         7.090005672        67.196000000 C.ar      1 UNK      0.000000000
     1818 C            15.964000000         5.671994328        67.196000000 C.ar      1 UNK      0.000000000
     1819 C            17.192000000         4.962988656        67.196000000 C.ar      1 UNK      0.000000000
     1820 C            17.192000000         7.799011344        67.196000000 C.ar      1 UNK      0.000000000
     1821 C            18.420000000         7.090005672        67.196000000 C.ar      1 UNK      0.000000000
     1822 C            18.420000000         5.671994328        67.196000000 C.ar      1 UNK      0.000000000
     1823 C            19.648000000         4.962988656        67.196000000 C.ar      1 UNK      0.000000000
     1824 C            19.648000000         7.799011344        67.196000000 C.ar      1 UNK      0.000000000
     1825 C            20.876000000         7.090005672        67.196000000 C.ar      1 UNK      0.000000000
     1826 C            20.876000000         5.671994328        67.196000000 C.ar      1 UNK      0.000000000
     1827 C            22.104000000         4.962988656        67.196000000 C.ar      1 UNK      0.000000000
     1828 C            22.104000000         7.799011344        67.196000000 C.ar      1 UNK      0.000000000
     1829 C            23.332000000         7.090005672        67.196000000 C.ar      1 UNK      0.000000000
     1830 C            23.332000000         5.671994328        67.196000000 C.ar      1 UNK      0.000000000
     1831 C            24.560000000         4.962988656        67.196000000 C.ar      1 UNK      0.000000000
     1832 C            24.560000000         7.799011344        67.196000000 C.ar      1 UNK      0.000000000
     1833 C            25.788000000         7.090005672        67.196000000 C.ar      1 UNK      0.000000000
     1834 C            25.788000000         5.671994328        67.196000000 C.ar      1 UNK      0.000000000
     1835 C            27.016000000         4.962988656        67.196000000 C.ar      1 UNK      0.000000000
     1836 C            27.016000000         7.799011344        67.196000000 C.ar      1 UNK      0.000000000
     1837 C            28.244000000         7.090005672        67.196000000 C.ar      1 UNK      0.000000000
     1838 C            28.244000000         5.671994328        67.196000000 C.ar      1 UNK      0.000000000
     1839 C            29.472000000         4.962988656        67.196000000 C.ar      1 UNK      0.000000000
     1840 C            29.472000000         7.799011344        67.196000000 C.ar      1 UNK      0.000000000
     1841 C            30.700000000         7.090005672        67.196000000 C.ar      1 UNK      0.000000000
     1842 C            30.700000000         5.671994328        67.196000000 C.ar      1 UNK      0.000000000
     1843 C            31.928000000         4.962988656        67.196000000 C.ar      1 UNK      0.000000000
     1844 C            31.928000000         7.799011344        67.196000000 C.ar      1 UNK      0.000000000
     1845 C            33.156000000         7.090005672        67.196000000 C.ar      1 UNK      0.000000000
     1846 C            33.156000000         5.671994328        67.196000000 C.ar      1 UNK      0.000000000
     1847 C            34.384000000         4.962988656        67.196000000 C.ar      1 UNK      0.000000000
     1848 C            34.384000000         7.799011344        67.196000000 C.ar      1 UNK      0.000000000
     1849 C            35.612000000         7.090005672        67.196000000 C.ar      1 UNK      0.000000000
     1850 C            35.612000000         5.671994328        67.196000000 C.ar      1 UNK      0.000000000
     1851 C            36.840000000         4.962988656        67.196000000 C.ar      1 UNK      0.000000000
     1852 C            36.840000000         7.799011344        67.196000000 C.ar      1 UNK      0.000000000
     1853 C            38.068000000         7.090005672        67.196000000 C.ar      1 UNK      0.000000000
     1854 C            38.068000000         5.671994328        67.196000000 C.ar      1 UNK      0.000000000
     1855 C            39.296000000         4.962988656        67.196000000 C.ar      1 UNK      0.000000000
     1856 C            39.296000000         7.799011344        67.196000000 C.ar      1 UNK      0.000000000
     1857 C            40.524000000         7.090005672        67.196000000 C.ar      1 UNK      0.000000000
     1858 C            40.524000000         5.671994328        67.196000000 C.ar      1 UNK      0.000000000
     1859 C            41.752000000         4.962988656        67.196000000 C.ar      1 UNK      0.000000000
     1860 C            41.752000000         7.799011344        67.196000000 C.ar      1 UNK      0.000000000
     1861 C            42.980000000         7.090005672        67.196000000 C.ar      1 UNK      0.000000000
     1862 C            42.980000000         5.671994328        67.196000000 C.ar      1 UNK      0.000000000
     1863 C            44.208000000         4.962988656        67.196000000 C.ar      1 UNK      0.000000000
     1864 C            44.208000000         7.799011344        67.196000000 C.ar      1 UNK      0.000000000
     1865 C            45.436000000         7.090005672        67.196000000 C.ar      1 UNK      0.000000000
     1866 C            45.436000000         5.671994328        67.196000000 C.ar      1 UNK      0.000000000
     1867 C            46.664000000         4.962988656        67.196000000 C.ar      1 UNK      0.000000000
     1868 C            46.664000000         7.799011344        67.196000000 C.ar      1 UNK      0.000000000
     1869 C            47.892000000         7.090005672        67.196000000 C.ar      1 UNK      0.000000000
     1870 C            47.892000000         5.671994328        67.196000000 C.ar      1 UNK      0.000000000
     1871 C             0.000000000         9.217022688        67.196000000 C.ar      1 UNK      0.000000000
     1872 C             0.000000000        12.052994328        67.196000000 C.ar      1 UNK      0.000000000
     1873 C             1.228000000        11.343988656        67.196000000 C.ar      1 UNK      0.000000000
     1874 C             1.228000000         9.925977312        67.196000000 C.ar      1 UNK      0.000000000
     1875 C             2.456000000         9.217022688        67.196000000 C.ar      1 UNK      0.000000000
     1876 C             2.456000000        12.052994328        67.196000000 C.ar      1 UNK      0.000000000
     1877 C             3.684000000        11.343988656        67.196000000 C.ar      1 UNK      0.000000000
     1878 C             3.684000000         9.925977312        67.196000000 C.ar      1 UNK      0.000000000
     1879 C             4.912000000         9.217022688        67.196000000 C.ar      1 UNK      0.000000000
     1880 C             4.912000000        12.052994328        67.196000000 C.ar      1 UNK      0.000000000
     1881 C             6.140000000        11.343988656        67.196000000 C.ar      1 UNK      0.000000000
     1882 C             6.140000000         9.925977312        67.196000000 C.ar      1 UNK      0.000000000
     1883 C             7.368000000         9.217022688        67.196000000 C.ar      1 UNK      0.000000000
     1884 C             7.368000000        12.052994328        67.196000000 C.ar      1 UNK      0.000000000
     1885 C             8.596000000        11.343988656        67.196000000 C.ar      1 UNK      0.000000000
     1886 C             8.596000000         9.925977312        67.196000000 C.ar      1 UNK      0.000000000
     1887 C             9.824000000         9.217022688        67.196000000 C.ar      1 UNK      0.000000000
     1888 C             9.824000000        12.052994328        67.196000000 C.ar      1 UNK      0.000000000
     1889 C            11.052000000        11.343988656        67.196000000 C.ar      1 UNK      0.000000000
     1890 C            11.052000000         9.925977312        67.196000000 C.ar      1 UNK      0.000000000
     1891 C            12.280000000         9.217022688        67.196000000 C.ar      1 UNK      0.000000000
     1892 C            12.280000000        12.052994328        67.196000000 C.ar      1 UNK      0.000000000
     1893 C            13.508000000        11.343988656        67.196000000 C.ar      1 UNK      0.000000000
     1894 C            13.508000000         9.925977312        67.196000000 C.ar      1 UNK      0.000000000
     1895 C            14.736000000         9.217022688        67.196000000 C.ar      1 UNK      0.000000000
     1896 C            14.736000000        12.052994328        67.196000000 C.ar      1 UNK      0.000000000
     1897 C            15.964000000        11.343988656        67.196000000 C.ar      1 UNK      0.000000000
     1898 C            15.964000000         9.925977312        67.196000000 C.ar      1 UNK      0.000000000
     1899 C            17.192000000         9.217022688        67.196000000 C.ar      1 UNK      0.000000000
     1900 C            17.192000000        12.052994328        67.196000000 C.ar      1 UNK      0.000000000
     1901 C            18.420000000        11.343988656        67.196000000 C.ar      1 UNK      0.000000000
     1902 C            18.420000000         9.925977312        67.196000000 C.ar      1 UNK      0.000000000
     1903 C            19.648000000         9.217022688        67.196000000 C.ar      1 UNK      0.000000000
     1904 C            19.648000000        12.052994328        67.196000000 C.ar      1 UNK      0.000000000
     1905 C            20.876000000        11.343988656        67.196000000 C.ar      1 UNK      0.000000000
     1906 C            20.876000000         9.925977312        67.196000000 C.ar      1 UNK      0.000000000
     1907 C            22.104000000         9.217022688        67.196000000 C.ar      1 UNK      0.000000000
     1908 C            22.104000000        12.052994328        67.196000000 C.ar      1 UNK      0.000000000
     1909 C            23.332000000        11.343988656        67.196000000 C.ar      1 UNK      0.000000000
     1910 C            23.332000000         9.925977312        67.196000000 C.ar      1 UNK      0.000000000
     1911 C            24.560000000         9.217022688        67.196000000 C.ar      1 UNK      0.000000000
     1912 C            24.560000000        12.052994328        67.196000000 C.ar      1 UNK      0.000000000
     1913 C            25.788000000        11.343988656        67.196000000 C.ar      1 UNK      0.000000000
     1914 C            25.788000000         9.925977312        67.196000000 C.ar      1 UNK      0.000000000
     1915 C            27.016000000         9.217022688        67.196000000 C.ar      1 UNK      0.000000000
     1916 C            27.016000000        12.052994328        67.196000000 C.ar      1 UNK      0.000000000
     1917 C            28.244000000        11.343988656        67.196000000 C.ar      1 UNK      0.000000000
     1918 C            28.244000000         9.925977312        67.196000000 C.ar      1 UNK      0.000000000
     1919 C            29.472000000         9.217022688        67.196000000 C.ar      1 UNK      0.000000000
     1920 C            29.472000000        12.052994328        67.196000000 C.ar      1 UNK      0.000000000
     1921 C            30.700000000        11.343988656        67.196000000 C.ar      1 UNK      0.000000000
     1922 C            30.700000000         9.925977312        67.196000000 C.ar      1 UNK      0.000000000
     1923 C            31.928000000         9.217022688        67.196000000 C.ar      1 UNK      0.000000000
     1924 C            31.928000000        12.052994328        67.196000000 C.ar      1 UNK      0.000000000
     1925 C            33.156000000        11.343988656        67.196000000 C.ar      1 UNK      0.000000000
     1926 C            33.156000000         9.925977312        67.196000000 C.ar      1 UNK      0.000000000
     1927 C            34.384000000         9.217022688        67.196000000 C.ar      1 UNK      0.000000000
     1928 C            34.384000000        12.052994328        67.196000000 C.ar      1 UNK      0.000000000
     1929 C            35.612000000        11.343988656        67.196000000 C.ar      1 UNK      0.000000000
     1930 C            35.612000000         9.925977312        67.196000000 C.ar      1 UNK      0.000000000
     1931 C            36.840000000         9.217022688        67.196000000 C.ar      1 UNK      0.000000000
     1932 C            36.840000000        12.052994328        67.196000000 C.ar      1 UNK      0.000000000
     1933 C            38.068000000        11.343988656        67.196000000 C.ar      1 UNK      0.000000000
     1934 C            38.068000000         9.925977312        67.196000000 C.ar      1 UNK      0.000000000
     1935 C            39.296000000         9.217022688        67.196000000 C.ar      1 UNK      0.000000000
     1936 C            39.296000000        12.052994328        67.196000000 C.ar      1 UNK      0.000000000
     1937 C            40.524000000        11.343988656        67.196000000 C.ar      1 UNK      0.000000000
     1938 C            40.524000000         9.925977312        67.196000000 C.ar      1 UNK      0.000000000
     1939 C            41.752000000         9.217022688        67.196000000 C.ar      1 UNK      0.000000000
     1940 C            41.752000000        12.052994328        67.196000000 C.ar      1 UNK      0.000000000
     1941 C            42.980000000        11.343988656        67.196000000 C.ar      1 UNK      0.000000000
     1942 C            42.980000000         9.925977312        67.196000000 C.ar      1 UNK      0.000000000
     1943 C            44.208000000         9.217022688        67.196000000 C.ar      1 UNK      0.000000000
     1944 C            44.208000000        12.052994328        67.196000000 C.ar      1 UNK      0.000000000
     1945 C            45.436000000        11.343988656        67.196000000 C.ar      1 UNK      0.000000000
     1946 C            45.436000000         9.925977312        67.196000000 C.ar      1 UNK      0.000000000
     1947 C            46.664000000         9.217022688        67.196000000 C.ar      1 UNK      0.000000000
     1948 C            46.664000000        12.052994328        67.196000000 C.ar      1 UNK      0.000000000
     1949 C            47.892000000        11.343988656        67.196000000 C.ar      1 UNK      0.000000000
     1950 C            47.892000000         9.925977312        67.196000000 C.ar      1 UNK      0.000000000
     1951 C             0.000000000        13.471005672        67.196000000 C.ar      1 UNK      0.000000000
     1952 C             0.000000000        16.306977312        67.196000000 C.ar      1 UNK      0.000000000
     1953 C             1.228000000        15.598022688        67.196000000 C.ar      1 UNK      0.000000000
     1954 C             1.228000000        14.180011344        67.196000000 C.ar      1 UNK      0.000000000
     1955 C             2.456000000        13.471005672        67.196000000 C.ar      1 UNK      0.000000000
     1956 C             2.456000000        16.306977312        67.196000000 C.ar      1 UNK      0.000000000
     1957 C             3.684000000        15.598022688        67.196000000 C.ar      1 UNK      0.000000000
     1958 C             3.684000000        14.180011344        67.196000000 C.ar      1 UNK      0.000000000
     1959 C             4.912000000        13.471005672        67.196000000 C.ar      1 UNK      0.000000000
     1960 C             4.912000000        16.306977312        67.196000000 C.ar      1 UNK      0.000000000
     1961 C             6.140000000        15.598022688        67.196000000 C.ar      1 UNK      0.000000000
     1962 C             6.140000000        14.180011344        67.196000000 C.ar      1 UNK      0.000000000
     1963 C             7.368000000        13.471005672        67.196000000 C.ar      1 UNK      0.000000000
     1964 C             7.368000000        16.306977312        67.196000000 C.ar      1 UNK      0.000000000
     1965 C             8.596000000        15.598022688        67.196000000 C.ar      1 UNK      0.000000000
     1966 C             8.596000000        14.180011344        67.196000000 C.ar      1 UNK      0.000000000
     1967 C             9.824000000        13.471005672        67.196000000 C.ar      1 UNK      0.000000000
     1968 C             9.824000000        16.306977312        67.196000000 C.ar      1 UNK      0.000000000
     1969 C            11.052000000        15.598022688        67.196000000 C.ar      1 UNK      0.000000000
     1970 C            11.052000000        14.180011344        67.196000000 C.ar      1 UNK      0.000000000
     1971 C            12.280000000        13.471005672        67.196000000 C.ar      1 UNK      0.000000000
     1972 C            12.280000000        16.306977312        67.196000000 C.ar      1 UNK      0.000000000
     1973 C            13.508000000        15.598022688        67.196000000 C.ar      1 UNK      0.000000000
     1974 C            13.508000000        14.180011344        67.196000000 C.ar      1 UNK      0.000000000
     1975 C            14.736000000        13.471005672        67.196000000 C.ar      1 UNK      0.000000000
     1976 C            14.736000000        16.306977312        67.196000000 C.ar      1 UNK      0.000000000
     1977 C            15.964000000        15.598022688        67.196000000 C.ar      1 UNK      0.000000000
     1978 C            15.964000000        14.180011344        67.196000000 C.ar      1 UNK      0.000000000
     1979 C            17.192000000        13.471005672        67.196000000 C.ar      1 UNK      0.000000000
     1980 C            17.192000000        16.306977312        67.196000000 C.ar      1 UNK      0.000000000
     1981 C            18.420000000        15.598022688        67.196000000 C.ar      1 UNK      0.000000000
     1982 C            18.420000000        14.180011344        67.196000000 C.ar      1 UNK      0.000000000
     1983 C            19.648000000        13.471005672        67.196000000 C.ar      1 UNK      0.000000000
     1984 C            19.648000000        16.306977312        67.196000000 C.ar      1 UNK      0.000000000
     1985 C            20.876000000        15.598022688        67.196000000 C.ar      1 UNK      0.000000000
     1986 C            20.876000000        14.180011344        67.196000000 C.ar      1 UNK      0.000000000
     1987 C            22.104000000        13.471005672        67.196000000 C.ar      1 UNK      0.000000000
     1988 C            22.104000000        16.306977312        67.196000000 C.ar      1 UNK      0.000000000
     1989 C            23.332000000        15.598022688        67.196000000 C.ar      1 UNK      0.000000000
     1990 C            23.332000000        14.180011344        67.196000000 C.ar      1 UNK      0.000000000
     1991 C            24.560000000        13.471005672        67.196000000 C.ar      1 UNK      0.000000000
     1992 C            24.560000000        16.306977312        67.196000000 C.ar      1 UNK      0.000000000
     1993 C            25.788000000        15.598022688        67.196000000 C.ar      1 UNK      0.000000000
     1994 C            25.788000000        14.180011344        67.196000000 C.ar      1 UNK      0.000000000
     1995 C            27.016000000        13.471005672        67.196000000 C.ar      1 UNK      0.000000000
     1996 C            27.016000000        16.306977312        67.196000000 C.ar      1 UNK      0.000000000
     1997 C            28.244000000        15.598022688        67.196000000 C.ar      1 UNK      0.000000000
     1998 C            28.244000000        14.180011344        67.196000000 C.ar      1 UNK      0.000000000
     1999 C            29.472000000        13.471005672        67.196000000 C.ar      1 UNK      0.000000000
     2000 C            29.472000000        16.306977312        67.196000000 C.ar      1 UNK      0.000000000
     2001 C            30.700000000        15.598022688        67.196000000 C.ar      1 UNK      0.000000000
     2002 C            30.700000000        14.180011344        67.196000000 C.ar      1 UNK      0.000000000
     2003 C            31.928000000        13.471005672        67.196000000 C.ar      1 UNK      0.000000000
     2004 C            31.928000000        16.306977312        67.196000000 C.ar      1 UNK      0.000000000
     2005 C            33.156000000        15.598022688        67.196000000 C.ar      1 UNK      0.000000000
     2006 C            33.156000000        14.180011344        67.196000000 C.ar      1 UNK      0.000000000
     2007 C            34.384000000        13.471005672        67.196000000 C.ar      1 UNK      0.000000000
     2008 C            34.384000000        16.306977312        67.196000000 C.ar      1 UNK      0.000000000
     2009 C            35.612000000        15.598022688        67.196000000 C.ar      1 UNK      0.000000000
     2010 C            35.612000000        14.180011344        67.196000000 C.ar      1 UNK      0.000000000
     2011 C            36.840000000        13.471005672        67.196000000 C.ar      1 UNK      0.000000000
     2012 C            36.840000000        16.306977312        67.196000000 C.ar      1 UNK      0.000000000
     2013 C            38.068000000        15.598022688        67.196000000 C.ar      1 UNK      0.000000000
     2014 C            38.068000000        14.180011344        67.196000000 C.ar      1 UNK      0.000000000
     2015 C            39.296000000        13.471005672        67.196000000 C.ar      1 UNK      0.000000000
     2016 C            39.296000000        16.306977312        67.196000000 C.ar      1 UNK      0.000000000
     2017 C            40.524000000        15.598022688        67.196000000 C.ar      1 UNK      0.000000000
     2018 C            40.524000000        14.180011344        67.196000000 C.ar      1 UNK      0.000000000
     2019 C            41.752000000        13.471005672        67.196000000 C.ar      1 UNK      0.000000000
     2020 C            41.752000000        16.306977312        67.196000000 C.ar      1 UNK      0.000000000
     2021 C            42.980000000        15.598022688        67.196000000 C.ar      1 UNK      0.000000000
     2022 C            42.980000000        14.180011344        67.196000000 C.ar      1 UNK      0.000000000
     2023 C            44.208000000        13.471005672        67.196000000 C.ar      1 UNK      0.000000000
     2024 C            44.208000000        16.306977312        67.196000000 C.ar      1 UNK      0.000000000
     2025 C            45.436000000        15.598022688        67.196000000 C.ar      1 UNK      0.000000000
     2026 C            45.436000000        14.180011344        67.196000000 C.ar      1 UNK      0.000000000
     2027 C            46.664000000        13.471005672        67.196000000 C.ar      1 UNK      0.000000000
     2028 C            46.664000000        16.306977312        67.196000000 C.ar      1 UNK      0.000000000
     2029 C            47.892000000        15.598022688        67.196000000 C.ar      1 UNK      0.000000000
     2030 C            47.892000000        14.180011344        67.196000000 C.ar      1 UNK      0.000000000
     2031 C             0.000000000        17.724988656        67.196000000 C.ar      1 UNK      0.000000000
     2032 C             0.000000000        20.561011344        67.196000000 C.ar      1 UNK      0.000000000
     2033 C             1.228000000        19.852005672        67.196000000 C.ar      1 UNK      0.000000000
     2034 C             1.228000000        18.433994328        67.196000000 C.ar      1 UNK      0.000000000
     2035 C             2.456000000        17.724988656        67.196000000 C.ar      1 UNK      0.000000000
     2036 C             2.456000000        20.561011344        67.196000000 C.ar      1 UNK      0.000000000
     2037 C             3.684000000        19.852005672        67.196000000 C.ar      1 UNK      0.000000000
     2038 C             3.684000000        18.433994328        67.196000000 C.ar      1 UNK      0.000000000
     2039 C             4.912000000        17.724988656        67.196000000 C.ar      1 UNK      0.000000000
     2040 C             4.912000000        20.561011344        67.196000000 C.ar      1 UNK      0.000000000
     2041 C             6.140000000        19.852005672        67.196000000 C.ar      1 UNK      0.000000000
     2042 C             6.140000000        18.433994328        67.196000000 C.ar      1 UNK      0.000000000
     2043 C             7.368000000        17.724988656        67.196000000 C.ar      1 UNK      0.000000000
     2044 C             7.368000000        20.561011344        67.196000000 C.ar      1 UNK      0.000000000
     2045 C             8.596000000        19.852005672        67.196000000 C.ar      1 UNK      0.000000000
     2046 C             8.596000000        18.433994328        67.196000000 C.ar      1 UNK      0.000000000
     2047 C             9.824000000        17.724988656        67.196000000 C.ar      1 UNK      0.000000000
     2048 C             9.824000000        20.561011344        67.196000000 C.ar      1 UNK      0.000000000
     2049 C            11.052000000        19.852005672        67.196000000 C.ar      1 UNK      0.000000000
     2050 C            11.052000000        18.433994328        67.196000000 C.ar      1 UNK      0.000000000
     2051 C            12.280000000        17.724988656        67.196000000 C.ar      1 UNK      0.000000000
     2052 C            12.280000000        20.561011344        67.196000000 C.ar      1 UNK      0.000000000
     2053 C            13.508000000        19.852005672        67.196000000 C.ar      1 UNK      0.000000000
     2054 C            13.508000000        18.433994328        67.196000000 C.ar      1 UNK      0.000000000
     2055 C            14.736000000        17.724988656        67.196000000 C.ar      1 UNK      0.000000000
     2056 C            14.736000000        20.561011344        67.196000000 C.ar      1 UNK      0.000000000
     2057 C            15.964000000        19.852005672        67.196000000 C.ar      1 UNK      0.000000000
     2058 C            15.964000000        18.433994328        67.196000000 C.ar      1 UNK      0.000000000
     2059 C            17.192000000        17.724988656        67.196000000 C.ar      1 UNK      0.000000000
     2060 C            17.192000000        20.561011344        67.196000000 C.ar      1 UNK      0.000000000
     2061 C            18.420000000        19.852005672        67.196000000 C.ar      1 UNK      0.000000000
     2062 C            18.420000000        18.433994328        67.196000000 C.ar      1 UNK      0.000000000
     2063 C            19.648000000        17.724988656        67.196000000 C.ar      1 UNK      0.000000000
     2064 C            19.648000000        20.561011344        67.196000000 C.ar      1 UNK      0.000000000
     2065 C            20.876000000        19.852005672        67.196000000 C.ar      1 UNK      0.000000000
     2066 C            20.876000000        18.433994328        67.196000000 C.ar      1 UNK      0.000000000
     2067 C            22.104000000        17.724988656        67.196000000 C.ar      1 UNK      0.000000000
     2068 C            22.104000000        20.561011344        67.196000000 C.ar      1 UNK      0.000000000
     2069 C            23.332000000        19.852005672        67.196000000 C.ar      1 UNK      0.000000000
     2070 C            23.332000000        18.433994328        67.196000000 C.ar      1 UNK      0.000000000
     2071 C            24.560000000        17.724988656        67.196000000 C.ar      1 UNK      0.000000000
     2072 C            24.560000000        20.561011344        67.196000000 C.ar      1 UNK      0.000000000
     2073 C            25.788000000        19.852005672        67.196000000 C.ar      1 UNK      0.000000000
     2074 C            25.788000000        18.433994328        67.196000000 C.ar      1 UNK      0.000000000
     2075 C            27.016000000        17.724988656        67.196000000 C.ar      1 UNK      0.000000000
     2076 C            27.016000000        20.561011344        67.196000000 C.ar      1 UNK      0.000000000
     2077 C            28.244000000        19.852005672        67.196000000 C.ar      1 UNK      0.000000000
     2078 C            28.244000000        18.433994328        67.196000000 C.ar      1 UNK      0.000000000
     2079 C            29.472000000        17.724988656        67.196000000 C.ar      1 UNK      0.000000000
     2080 C            29.472000000        20.561011344        67.196000000 C.ar      1 UNK      0.000000000
     2081 C            30.700000000        19.852005672        67.196000000 C.ar      1 UNK      0.000000000
     2082 C            30.700000000        18.433994328        67.196000000 C.ar      1 UNK      0.000000000
     2083 C            31.928000000        17.724988656        67.196000000 C.ar      1 UNK      0.000000000
     2084 C            31.928000000        20.561011344        67.196000000 C.ar      1 UNK      0.000000000
     2085 C            33.156000000        19.852005672        67.196000000 C.ar      1 UNK      0.000000000
     2086 C            33.156000000        18.433994328        67.196000000 C.ar      1 UNK      0.000000000
     2087 C            34.384000000        17.724988656        67.196000000 C.ar      1 UNK      0.000000000
     2088 C            34.384000000        20.561011344        67.196000000 C.ar      1 UNK      0.000000000
     2089 C            35.612000000        19.852005672        67.196000000 C.ar      1 UNK      0.000000000
     2090 C            35.612000000        18.433994328        67.196000000 C.ar      1 UNK      0.000000000
     2091 C            36.840000000        17.724988656        67.196000000 C.ar      1 UNK      0.000000000
     2092 C            36.840000000        20.561011344        67.196000000 C.ar      1 UNK      0.000000000
     2093 C            38.068000000        19.852005672        67.196000000 C.ar      1 UNK      0.000000000
     2094 C            38.068000000        18.433994328        67.196000000 C.ar      1 UNK      0.000000000
     2095 C            39.296000000        17.724988656        67.196000000 C.ar      1 UNK      0.000000000
     2096 C            39.296000000        20.561011344        67.196000000 C.ar      1 UNK      0.000000000
     2097 C            40.524000000        19.852005672        67.196000000 C.ar      1 UNK      0.000000000
     2098 C            40.524000000        18.433994328        67.196000000 C.ar      1 UNK      0.000000000
     2099 C            41.752000000        17.724988656        67.196000000 C.ar      1 UNK      0.000000000
     2100 C            41.752000000        20.561011344        67.196000000 C.ar      1 UNK      0.000000000
     2101 C            42.980000000        19.852005672        67.196000000 C.ar      1 UNK      0.000000000
     2102 C            42.980000000        18.433994328        67.196000000 C.ar      1 UNK      0.000000000
     2103 C            44.208000000        17.724988656        67.196000000 C.ar      1 UNK      0.000000000
     2104 C            44.208000000        20.561011344        67.196000000 C.ar      1 UNK      0.000000000
     2105 C            45.436000000        19.852005672        67.196000000 C.ar      1 UNK      0.000000000
     2106 C            45.436000000        18.433994328        67.196000000 C.ar      1 UNK      0.000000000
     2107 C            46.664000000        17.724988656        67.196000000 C.ar      1 UNK      0.000000000
     2108 C            46.664000000        20.561011344        67.196000000 C.ar      1 UNK      0.000000000
     2109 C            47.892000000        19.852005672        67.196000000 C.ar      1 UNK      0.000000000
     2110 C            47.892000000        18.433994328        67.196000000 C.ar      1 UNK      0.000000000
     2111 C             0.000000000        21.979022688        67.196000000 C.ar      1 UNK      0.000000000
     2112 C             0.000000000        24.814994328        67.196000000 C.ar      1 UNK      0.000000000
     2113 C             1.228000000        24.105988656        67.196000000 C.ar      1 UNK      0.000000000
     2114 C             1.228000000        22.687977312        67.196000000 C.ar      1 UNK      0.000000000
     2115 C             2.456000000        21.979022688        67.196000000 C.ar      1 UNK      0.000000000
     2116 C             2.456000000        24.814994328        67.196000000 C.ar      1 UNK      0.000000000
     2117 C             3.684000000        24.105988656        67.196000000 C.ar      1 UNK      0.000000000
     2118 C             3.684000000        22.687977312        67.196000000 C.ar      1 UNK      0.000000000
     2119 C             4.912000000        21.979022688        67.196000000 C.ar      1 UNK      0.000000000
     2120 C             4.912000000        24.814994328        67.196000000 C.ar      1 UNK      0.000000000
     2121 C             6.140000000        24.105988656        67.196000000 C.ar      1 UNK      0.000000000
     2122 C             6.140000000        22.687977312        67.196000000 C.ar      1 UNK      0.000000000
     2123 C             7.368000000        21.979022688        67.196000000 C.ar      1 UNK      0.000000000
     2124 C             7.368000000        24.814994328        67.196000000 C.ar      1 UNK      0.000000000
     2125 C             8.596000000        24.105988656        67.196000000 C.ar      1 UNK      0.000000000
     2126 C             8.596000000        22.687977312        67.196000000 C.ar      1 UNK      0.000000000
     2127 C             9.824000000        21.979022688        67.196000000 C.ar      1 UNK      0.000000000
     2128 C             9.824000000        24.814994328        67.196000000 C.ar      1 UNK      0.000000000
     2129 C            11.052000000        24.105988656        67.196000000 C.ar      1 UNK      0.000000000
     2130 C            11.052000000        22.687977312        67.196000000 C.ar      1 UNK      0.000000000
     2131 C            12.280000000        21.979022688        67.196000000 C.ar      1 UNK      0.000000000
     2132 C            12.280000000        24.814994328        67.196000000 C.ar      1 UNK      0.000000000
     2133 C            13.508000000        24.105988656        67.196000000 C.ar      1 UNK      0.000000000
     2134 C            13.508000000        22.687977312        67.196000000 C.ar      1 UNK      0.000000000
     2135 C            14.736000000        21.979022688        67.196000000 C.ar      1 UNK      0.000000000
     2136 C            14.736000000        24.814994328        67.196000000 C.ar      1 UNK      0.000000000
     2137 C            15.964000000        24.105988656        67.196000000 C.ar      1 UNK      0.000000000
     2138 C            15.964000000        22.687977312        67.196000000 C.ar      1 UNK      0.000000000
     2139 C            17.192000000        21.979022688        67.196000000 C.ar      1 UNK      0.000000000
     2140 C            17.192000000        24.814994328        67.196000000 C.ar      1 UNK      0.000000000
     2141 C            18.420000000        24.105988656        67.196000000 C.ar      1 UNK      0.000000000
     2142 C            18.420000000        22.687977312        67.196000000 C.ar      1 UNK      0.000000000
     2143 C            19.648000000        21.979022688        67.196000000 C.ar      1 UNK      0.000000000
     2144 C            19.648000000        24.814994328        67.196000000 C.ar      1 UNK      0.000000000
     2145 C            20.876000000        24.105988656        67.196000000 C.ar      1 UNK      0.000000000
     2146 C            20.876000000        22.687977312        67.196000000 C.ar      1 UNK      0.000000000
     2147 C            22.104000000        21.979022688        67.196000000 C.ar      1 UNK      0.000000000
     2148 C            22.104000000        24.814994328        67.196000000 C.ar      1 UNK      0.000000000
     2149 C            23.332000000        24.105988656        67.196000000 C.ar      1 UNK      0.000000000
     2150 C            23.332000000        22.687977312        67.196000000 C.ar      1 UNK      0.000000000
     2151 C            24.560000000        21.979022688        67.196000000 C.ar      1 UNK      0.000000000
     2152 C            24.560000000        24.814994328        67.196000000 C.ar      1 UNK      0.000000000
     2153 C            25.788000000        24.105988656        67.196000000 C.ar      1 UNK      0.000000000
     2154 C            25.788000000        22.687977312        67.196000000 C.ar      1 UNK      0.000000000
     2155 C            27.016000000        21.979022688        67.196000000 C.ar      1 UNK      0.000000000
     2156 C            27.016000000        24.814994328        67.196000000 C.ar      1 UNK      0.000000000
     2157 C            28.244000000        24.105988656        67.196000000 C.ar      1 UNK      0.000000000
     2158 C            28.244000000        22.687977312        67.196000000 C.ar      1 UNK      0.000000000
     2159 C            29.472000000        21.979022688        67.196000000 C.ar      1 UNK      0.000000000
     2160 C            29.472000000        24.814994328        67.196000000 C.ar      1 UNK      0.000000000
     2161 C            30.700000000        24.105988656        67.196000000 C.ar      1 UNK      0.000000000
     2162 C            30.700000000        22.687977312        67.196000000 C.ar      1 UNK      0.000000000
     2163 C            31.928000000        21.979022688        67.196000000 C.ar      1 UNK      0.000000000
     2164 C            31.928000000        24.814994328        67.196000000 C.ar      1 UNK      0.000000000
     2165 C            33.156000000        24.105988656        67.196000000 C.ar      1 UNK      0.000000000
     2166 C            33.156000000        22.687977312        67.196000000 C.ar      1 UNK      0.000000000
     2167 C            34.384000000        21.979022688        67.196000000 C.ar      1 UNK      0.000000000
     2168 C            34.384000000        24.814994328        67.196000000 C.ar      1 UNK      0.000000000
     2169 C            35.612000000        24.105988656        67.196000000 C.ar      1 UNK      0.000000000
     2170 C            35.612000000        22.687977312        67.196000000 C.ar      1 UNK      0.000000000
     2171 C            36.840000000        21.979022688        67.196000000 C.ar      1 UNK      0.000000000
     2172 C            36.840000000        24.814994328        67.196000000 C.ar      1 UNK      0.000000000
     2173 C            38.068000000        24.105988656        67.196000000 C.ar      1 UNK      0.000000000
     2174 C            38.068000000        22.687977312        67.196000000 C.ar      1 UNK      0.000000000
     2175 C            39.296000000        21.979022688        67.196000000 C.ar      1 UNK      0.000000000
     2176 C            39.296000000        24.814994328        67.196000000 C.ar      1 UNK      0.000000000
     2177 C            40.524000000        24.105988656        67.196000000 C.ar      1 UNK      0.000000000
     2178 C            40.524000000        22.687977312        67.196000000 C.ar      1 UNK      0.000000000
     2179 C            41.752000000        21.979022688        67.196000000 C.ar      1 UNK      0.000000000
     2180 C            41.752000000        24.814994328        67.196000000 C.ar      1 UNK      0.000000000
     2181 C            42.980000000        24.105988656        67.196000000 C.ar      1 UNK      0.000000000
     2182 C            42.980000000        22.687977312        67.196000000 C.ar      1 UNK      0.000000000
     2183 C            44.208000000        21.979022688        67.196000000 C.ar      1 UNK      0.000000000
     2184 C            44.208000000        24.814994328        67.196000000 C.ar      1 UNK      0.000000000
     2185 C            45.436000000        24.105988656        67.196000000 C.ar      1 UNK      0.000000000
     2186 C            45.436000000        22.687977312        67.196000000 C.ar      1 UNK      0.000000000
     2187 C            46.664000000        21.979022688        67.196000000 C.ar      1 UNK      0.000000000
     2188 C            46.664000000        24.814994328        67.196000000 C.ar      1 UNK      0.000000000
     2189 C            47.892000000        24.105988656        67.196000000 C.ar      1 UNK      0.000000000
     2190 C            47.892000000        22.687977312        67.196000000 C.ar      1 UNK      0.000000000
     2191 C             0.000000000        26.233005672        67.196000000 C.ar      1 UNK      0.000000000
     2192 C             0.000000000        29.068977312        67.196000000 C.ar      1 UNK      0.000000000
     2193 C             1.228000000        28.360022688        67.196000000 C.ar      1 UNK      0.000000000
     2194 C             1.228000000        26.942011344        67.196000000 C.ar      1 UNK      0.000000000
     2195 C             2.456000000        26.233005672        67.196000000 C.ar      1 UNK      0.000000000
     2196 C             2.456000000        29.068977312        67.196000000 C.ar      1 UNK      0.000000000
     2197 C             3.684000000        28.360022688        67.196000000 C.ar      1 UNK      0.000000000
     2198 C             3.684000000        26.942011344        67.196000000 C.ar      1 UNK      0.000000000
     2199 C             4.912000000        26.233005672        67.196000000 C.ar      1 UNK      0.000000000
     2200 C             4.912000000        29.068977312        67.196000000 C.ar      1 UNK      0.000000000
     2201 C             6.140000000        28.360022688        67.196000000 C.ar      1 UNK      0.000000000
     2202 C             6.140000000        26.942011344        67.196000000 C.ar      1 UNK      0.000000000
     2203 C             7.368000000        26.233005672        67.196000000 C.ar      1 UNK      0.000000000
     2204 C             7.368000000        29.068977312        67.196000000 C.ar      1 UNK      0.000000000
     2205 C             8.596000000        28.360022688        67.196000000 C.ar      1 UNK      0.000000000
     2206 C             8.596000000        26.942011344        67.196000000 C.ar      1 UNK      0.000000000
     2207 C             9.824000000        26.233005672        67.196000000 C.ar      1 UNK      0.000000000
     2208 C             9.824000000        29.068977312        67.196000000 C.ar      1 UNK      0.000000000
     2209 C            11.052000000        28.360022688        67.196000000 C.ar      1 UNK      0.000000000
     2210 C            11.052000000        26.942011344        67.196000000 C.ar      1 UNK      0.000000000
     2211 C            12.280000000        26.233005672        67.196000000 C.ar      1 UNK      0.000000000
     2212 C            12.280000000        29.068977312        67.196000000 C.ar      1 UNK      0.000000000
     2213 C            13.508000000        28.360022688        67.196000000 C.ar      1 UNK      0.000000000
     2214 C            13.508000000        26.942011344        67.196000000 C.ar      1 UNK      0.000000000
     2215 C            14.736000000        26.233005672        67.196000000 C.ar      1 UNK      0.000000000
     2216 C            14.736000000        29.068977312        67.196000000 C.ar      1 UNK      0.000000000
     2217 C            15.964000000        28.360022688        67.196000000 C.ar      1 UNK      0.000000000
     2218 C            15.964000000        26.942011344        67.196000000 C.ar      1 UNK      0.000000000
     2219 C            17.192000000        26.233005672        67.196000000 C.ar      1 UNK      0.000000000
     2220 C            17.192000000        29.068977312        67.196000000 C.ar      1 UNK      0.000000000
     2221 C            18.420000000        28.360022688        67.196000000 C.ar      1 UNK      0.000000000
     2222 C            18.420000000        26.942011344        67.196000000 C.ar      1 UNK      0.000000000
     2223 C            19.648000000        26.233005672        67.196000000 C.ar      1 UNK      0.000000000
     2224 C            19.648000000        29.068977312        67.196000000 C.ar      1 UNK      0.000000000
     2225 C            20.876000000        28.360022688        67.196000000 C.ar      1 UNK      0.000000000
     2226 C            20.876000000        26.942011344        67.196000000 C.ar      1 UNK      0.000000000
     2227 C            22.104000000        26.233005672        67.196000000 C.ar      1 UNK      0.000000000
     2228 C            22.104000000        29.068977312        67.196000000 C.ar      1 UNK      0.000000000
     2229 C            23.332000000        28.360022688        67.196000000 C.ar      1 UNK      0.000000000
     2230 C            23.332000000        26.942011344        67.196000000 C.ar      1 UNK      0.000000000
     2231 C            24.560000000        26.233005672        67.196000000 C.ar      1 UNK      0.000000000
     2232 C            24.560000000        29.068977312        67.196000000 C.ar      1 UNK      0.000000000
     2233 C            25.788000000        28.360022688        67.196000000 C.ar      1 UNK      0.000000000
     2234 C            25.788000000        26.942011344        67.196000000 C.ar      1 UNK      0.000000000
     2235 C            27.016000000        26.233005672        67.196000000 C.ar      1 UNK      0.000000000
     2236 C            27.016000000        29.068977312        67.196000000 C.ar      1 UNK      0.000000000
     2237 C            28.244000000        28.360022688        67.196000000 C.ar      1 UNK      0.000000000
     2238 C            28.244000000        26.942011344        67.196000000 C.ar      1 UNK      0.000000000
     2239 C            29.472000000        26.233005672        67.196000000 C.ar      1 UNK      0.000000000
     2240 C            29.472000000        29.068977312        67.196000000 C.ar      1 UNK      0.000000000
     2241 C            30.700000000        28.360022688        67.196000000 C.ar      1 UNK      0.000000000
     2242 C            30.700000000        26.942011344        67.196000000 C.ar      1 UNK      0.000000000
     2243 C            31.928000000        26.233005672        67.196000000 C.ar      1 UNK      0.000000000
     2244 C            31.928000000        29.068977312        67.196000000 C.ar      1 UNK      0.000000000
     2245 C            33.156000000        28.360022688        67.196000000 C.ar      1 UNK      0.000000000
     2246 C            33.156000000        26.942011344        67.196000000 C.ar      1 UNK      0.000000000
     2247 C            34.384000000        26.233005672        67.196000000 C.ar      1 UNK      0.000000000
     2248 C            34.384000000        29.068977312        67.196000000 C.ar      1 UNK      0.000000000
     2249 C            35.612000000        28.360022688        67.196000000 C.ar      1 UNK      0.000000000
     2250 C            35.612000000        26.942011344        67.196000000 C.ar      1 UNK      0.000000000
     2251 C            36.840000000        26.233005672        67.196000000 C.ar      1 UNK      0.000000000
     2252 C            36.840000000        29.068977312        67.196000000 C.ar      1 UNK      0.000000000
     2253 C            38.068000000        28.360022688        67.196000000 C.ar      1 UNK      0.000000000
     2254 C            38.068000000        26.942011344        67.196000000 C.ar      1 UNK      0.000000000
     2255 C            39.296000000        26.233005672        67.196000000 C.ar      1 UNK      0.000000000
     2256 C            39.296000000        29.068977312        67.196000000 C.ar      1 UNK      0.000000000
     2257 C            40.524000000        28.360022688        67.196000000 C.ar      1 UNK      0.000000000
     2258 C            40.524000000        26.942011344        67.196000000 C.ar      1 UNK      0.000000000
     2259 C            41.752000000        26.233005672        67.196000000 C.ar      1 UNK      0.000000000
     2260 C            41.752000000        29.068977312        67.196000000 C.ar      1 UNK      0.000000000
     2261 C            42.980000000        28.360022688        67.196000000 C.ar      1 UNK      0.000000000
     2262 C            42.980000000        26.942011344        67.196000000 C.ar      1 UNK      0.000000000
     2263 C            44.208000000        26.233005672        67.196000000 C.ar      1 UNK      0.000000000
     2264 C            44.208000000        29.068977312        67.196000000 C.ar      1 UNK      0.000000000
     2265 C            45.436000000        28.360022688        67.196000000 C.ar      1 UNK      0.000000000
     2266 C            45.436000000        26.942011344        67.196000000 C.ar      1 UNK      0.000000000
     2267 C            46.664000000        26.233005672        67.196000000 C.ar      1 UNK      0.000000000
     2268 C            46.664000000        29.068977312        67.196000000 C.ar      1 UNK      0.000000000
     2269 C            47.892000000        28.360022688        67.196000000 C.ar      1 UNK      0.000000000
     2270 C            47.892000000        26.942011344        67.196000000 C.ar      1 UNK      0.000000000
     2271 C             0.000000000        30.486988656        67.196000000 C.ar      1 UNK      0.000000000
     2272 C             0.000000000        33.323011344        67.196000000 C.ar      1 UNK      0.000000000
     2273 C             1.228000000        32.614005672        67.196000000 C.ar      1 UNK      0.000000000
     2274 C             1.228000000        31.195994328        67.196000000 C.ar      1 UNK      0.000000000
     2275 C             2.456000000        30.486988656        67.196000000 C.ar      1 UNK      0.000000000
     2276 C             2.456000000        33.323011344        67.196000000 C.ar      1 UNK      0.000000000
     2277 C             3.684000000        32.614005672        67.196000000 C.ar      1 UNK      0.000000000
     2278 C             3.684000000        31.195994328        67.196000000 C.ar      1 UNK      0.000000000
     2279 C             4.912000000        30.486988656        67.196000000 C.ar      1 UNK      0.000000000
     2280 C             4.912000000        33.323011344        67.196000000 C.ar      1 UNK      0.000000000
     2281 C             6.140000000        32.614005672        67.196000000 C.ar      1 UNK      0.000000000
     2282 C             6.140000000        31.195994328        67.196000000 C.ar      1 UNK      0.000000000
     2283 C             7.368000000        30.486988656        67.196000000 C.ar      1 UNK      0.000000000
     2284 C             7.368000000        33.323011344        67.196000000 C.ar      1 UNK      0.000000000
     2285 C             8.596000000        32.614005672        67.196000000 C.ar      1 UNK      0.000000000
     2286 C             8.596000000        31.195994328        67.196000000 C.ar      1 UNK      0.000000000
     2287 C             9.824000000        30.486988656        67.196000000 C.ar      1 UNK      0.000000000
     2288 C             9.824000000        33.323011344        67.196000000 C.ar      1 UNK      0.000000000
     2289 C            11.052000000        32.614005672        67.196000000 C.ar      1 UNK      0.000000000
     2290 C            11.052000000        31.195994328        67.196000000 C.ar      1 UNK      0.000000000
     2291 C            12.280000000        30.486988656        67.196000000 C.ar      1 UNK      0.000000000
     2292 C            12.280000000        33.323011344        67.196000000 C.ar      1 UNK      0.000000000
     2293 C            13.508000000        32.614005672        67.196000000 C.ar      1 UNK      0.000000000
     2294 C            13.508000000        31.195994328        67.196000000 C.ar      1 UNK      0.000000000
     2295 C            14.736000000        30.486988656        67.196000000 C.ar      1 UNK      0.000000000
     2296 C            14.736000000        33.323011344        67.196000000 C.ar      1 UNK      0.000000000
     2297 C            15.964000000        32.614005672        67.196000000 C.ar      1 UNK      0.000000000
     2298 C            15.964000000        31.195994328        67.196000000 C.ar      1 UNK      0.000000000
     2299 C            17.192000000        30.486988656        67.196000000 C.ar      1 UNK      0.000000000
     2300 C            17.192000000        33.323011344        67.196000000 C.ar      1 UNK      0.000000000
     2301 C            18.420000000        32.614005672        67.196000000 C.ar      1 UNK      0.000000000
     2302 C            18.420000000        31.195994328        67.196000000 C.ar      1 UNK      0.000000000
     2303 C            19.648000000        30.486988656        67.196000000 C.ar      1 UNK      0.000000000
     2304 C            19.648000000        33.323011344        67.196000000 C.ar      1 UNK      0.000000000
     2305 C            20.876000000        32.614005672        67.196000000 C.ar      1 UNK      0.000000000
     2306 C            20.876000000        31.195994328        67.196000000 C.ar      1 UNK      0.000000000
     2307 C            22.104000000        30.486988656        67.196000000 C.ar      1 UNK      0.000000000
     2308 C            22.104000000        33.323011344        67.196000000 C.ar      1 UNK      0.000000000
     2309 C            23.332000000        32.614005672        67.196000000 C.ar      1 UNK      0.000000000
     2310 C            23.332000000        31.195994328        67.196000000 C.ar      1 UNK      0.000000000
     2311 C            24.560000000        30.486988656        67.196000000 C.ar      1 UNK      0.000000000
     2312 C            24.560000000        33.323011344        67.196000000 C.ar      1 UNK      0.000000000
     2313 C            25.788000000        32.614005672        67.196000000 C.ar      1 UNK      0.000000000
     2314 C            25.788000000        31.195994328        67.196000000 C.ar      1 UNK      0.000000000
     2315 C            27.016000000        30.486988656        67.196000000 C.ar      1 UNK      0.000000000
     2316 C            27.016000000        33.323011344        67.196000000 C.ar      1 UNK      0.000000000
     2317 C            28.244000000        32.614005672        67.196000000 C.ar      1 UNK      0.000000000
     2318 C            28.244000000        31.195994328        67.196000000 C.ar      1 UNK      0.000000000
     2319 C            29.472000000        30.486988656        67.196000000 C.ar      1 UNK      0.000000000
     2320 C            29.472000000        33.323011344        67.196000000 C.ar      1 UNK      0.000000000
     2321 C            30.700000000        32.614005672        67.196000000 C.ar      1 UNK      0.000000000
     2322 C            30.700000000        31.195994328        67.196000000 C.ar      1 UNK      0.000000000
     2323 C            31.928000000        30.486988656        67.196000000 C.ar      1 UNK      0.000000000
     2324 C            31.928000000        33.323011344        67.196000000 C.ar      1 UNK      0.000000000
     2325 C            33.156000000        32.614005672        67.196000000 C.ar      1 UNK      0.000000000
     2326 C            33.156000000        31.195994328        67.196000000 C.ar      1 UNK      0.000000000
     2327 C            34.384000000        30.486988656        67.196000000 C.ar      1 UNK      0.000000000
     2328 C            34.384000000        33.323011344        67.196000000 C.ar      1 UNK      0.000000000
     2329 C            35.612000000        32.614005672        67.196000000 C.ar      1 UNK      0.000000000
     2330 C            35.612000000        31.195994328        67.196000000 C.ar      1 UNK      0.000000000
     2331 C            36.840000000        30.486988656        67.196000000 C.ar      1 UNK      0.000000000
     2332 C            36.840000000        33.323011344        67.196000000 C.ar      1 UNK      0.000000000
     2333 C            38.068000000        32.614005672        67.196000000 C.ar      1 UNK      0.000000000
     2334 C            38.068000000        31.195994328        67.196000000 C.ar      1 UNK      0.000000000
     2335 C            39.296000000        30.486988656        67.196000000 C.ar      1 UNK      0.000000000
     2336 C            39.296000000        33.323011344        67.196000000 C.ar      1 UNK      0.000000000
     2337 C            40.524000000        32.614005672        67.196000000 C.ar      1 UNK      0.000000000
     2338 C            40.524000000        31.195994328        67.196000000 C.ar      1 UNK      0.000000000
     2339 C            41.752000000        30.486988656        67.196000000 C.ar      1 UNK      0.000000000
     2340 C            41.752000000        33.323011344        67.196000000 C.ar      1 UNK      0.000000000
     2341 C            42.980000000        32.614005672        67.196000000 C.ar      1 UNK      0.000000000
     2342 C            42.980000000        31.195994328        67.196000000 C.ar      1 UNK      0.000000000
     2343 C            44.208000000        30.486988656        67.196000000 C.ar      1 UNK      0.000000000
     2344 C            44.208000000        33.323011344        67.196000000 C.ar      1 UNK      0.000000000
     2345 C            45.436000000        32.614005672        67.196000000 C.ar      1 UNK      0.000000000
     2346 C            45.436000000        31.195994328        67.196000000 C.ar      1 UNK      0.000000000
     2347 C            46.664000000        30.486988656        67.196000000 C.ar      1 UNK      0.000000000
     2348 C            46.664000000        33.323011344        67.196000000 C.ar      1 UNK      0.000000000
     2349 C            47.892000000        32.614005672        67.196000000 C.ar      1 UNK      0.000000000
     2350 C            47.892000000        31.195994328        67.196000000 C.ar      1 UNK      0.000000000
     2351 C             0.000000000        34.741022688        67.196000000 C.ar      1 UNK      0.000000000
     2352 C             0.000000000        37.576994328        67.196000000 C.ar      1 UNK      0.000000000
     2353 C             1.228000000        36.867988656        67.196000000 C.ar      1 UNK      0.000000000
     2354 C             1.228000000        35.449977312        67.196000000 C.ar      1 UNK      0.000000000
     2355 C             2.456000000        34.741022688        67.196000000 C.ar      1 UNK      0.000000000
     2356 C             2.456000000        37.576994328        67.196000000 C.ar      1 UNK      0.000000000
     2357 C             3.684000000        36.867988656        67.196000000 C.ar      1 UNK      0.000000000
     2358 C             3.684000000        35.449977312        67.196000000 C.ar      1 UNK      0.000000000
     2359 C             4.912000000        34.741022688        67.196000000 C.ar      1 UNK      0.000000000
     2360 C             4.912000000        37.576994328        67.196000000 C.ar      1 UNK      0.000000000
     2361 C             6.140000000        36.867988656        67.196000000 C.ar      1 UNK      0.000000000
     2362 C             6.140000000        35.449977312        67.196000000 C.ar      1 UNK      0.000000000
     2363 C             7.368000000        34.741022688        67.196000000 C.ar      1 UNK      0.000000000
     2364 C             7.368000000        37.576994328        67.196000000 C.ar      1 UNK      0.000000000
     2365 C             8.596000000        36.867988656        67.196000000 C.ar      1 UNK      0.000000000
     2366 C             8.596000000        35.449977312        67.196000000 C.ar      1 UNK      0.000000000
     2367 C             9.824000000        34.741022688        67.196000000 C.ar      1 UNK      0.000000000
     2368 C             9.824000000        37.576994328        67.196000000 C.ar      1 UNK      0.000000000
     2369 C            11.052000000        36.867988656        67.196000000 C.ar      1 UNK      0.000000000
     2370 C            11.052000000        35.449977312        67.196000000 C.ar      1 UNK      0.000000000
     2371 C            12.280000000        34.741022688        67.196000000 C.ar      1 UNK      0.000000000
     2372 C            12.280000000        37.576994328        67.196000000 C.ar      1 UNK      0.000000000
     2373 C            13.508000000        36.867988656        67.196000000 C.ar      1 UNK      0.000000000
     2374 C            13.508000000        35.449977312        67.196000000 C.ar      1 UNK      0.000000000
     2375 C            14.736000000        34.741022688        67.196000000 C.ar      1 UNK      0.000000000
     2376 C            14.736000000        37.576994328        67.196000000 C.ar      1 UNK      0.000000000
     2377 C            15.964000000        36.867988656        67.196000000 C.ar      1 UNK      0.000000000
     2378 C            15.964000000        35.449977312        67.196000000 C.ar      1 UNK      0.000000000
     2379 C            17.192000000        34.741022688        67.196000000 C.ar      1 UNK      0.000000000
     2380 C            17.192000000        37.576994328        67.196000000 C.ar      1 UNK      0.000000000
     2381 C            18.420000000        36.867988656        67.196000000 C.ar      1 UNK      0.000000000
     2382 C            18.420000000        35.449977312        67.196000000 C.ar      1 UNK      0.000000000
     2383 C            19.648000000        34.741022688        67.196000000 C.ar      1 UNK      0.000000000
     2384 C            19.648000000        37.576994328        67.196000000 C.ar      1 UNK      0.000000000
     2385 C            20.876000000        36.867988656        67.196000000 C.ar      1 UNK      0.000000000
     2386 C            20.876000000        35.449977312        67.196000000 C.ar      1 UNK      0.000000000
     2387 C            22.104000000        34.741022688        67.196000000 C.ar      1 UNK      0.000000000
     2388 C            22.104000000        37.576994328        67.196000000 C.ar      1 UNK      0.000000000
     2389 C            23.332000000        36.867988656        67.196000000 C.ar      1 UNK      0.000000000
     2390 C            23.332000000        35.449977312        67.196000000 C.ar      1 UNK      0.000000000
     2391 C            24.560000000        34.741022688        67.196000000 C.ar      1 UNK      0.000000000
     2392 C            24.560000000        37.576994328        67.196000000 C.ar      1 UNK      0.000000000
     2393 C            25.788000000        36.867988656        67.196000000 C.ar      1 UNK      0.000000000
     2394 C            25.788000000        35.449977312        67.196000000 C.ar      1 UNK      0.000000000
     2395 C            27.016000000        34.741022688        67.196000000 C.ar      1 UNK      0.000000000
     2396 C            27.016000000        37.576994328        67.196000000 C.ar      1 UNK      0.000000000
     2397 C            28.244000000        36.867988656        67.196000000 C.ar      1 UNK      0.000000000
     2398 C            28.244000000        35.449977312        67.196000000 C.ar      1 UNK      0.000000000
     2399 C            29.472000000        34.741022688        67.196000000 C.ar      1 UNK      0.000000000
     2400 C            29.472000000        37.576994328        67.196000000 C.ar      1 UNK      0.000000000
     2401 C            30.700000000        36.867988656        67.196000000 C.ar      1 UNK      0.000000000
     2402 C            30.700000000        35.449977312        67.196000000 C.ar      1 UNK      0.000000000
     2403 C            31.928000000        34.741022688        67.196000000 C.ar      1 UNK      0.000000000
     2404 C            31.928000000        37.576994328        67.196000000 C.ar      1 UNK      0.000000000
     2405 C            33.156000000        36.867988656        67.196000000 C.ar      1 UNK      0.000000000
     2406 C            33.156000000        35.449977312        67.196000000 C.ar      1 UNK      0.000000000
     2407 C            34.384000000        34.741022688        67.196000000 C.ar      1 UNK      0.000000000
     2408 C            34.384000000        37.576994328        67.196000000 C.ar      1 UNK      0.000000000
     2409 C            35.612000000        36.867988656        67.196000000 C.ar      1 UNK      0.000000000
     2410 C            35.612000000        35.449977312        67.196000000 C.ar      1 UNK      0.000000000
     2411 C            36.840000000        34.741022688        67.196000000 C.ar      1 UNK      0.000000000
     2412 C            36.840000000        37.576994328        67.196000000 C.ar      1 UNK      0.000000000
     2413 C            38.068000000        36.867988656        67.196000000 C.ar      1 UNK      0.000000000
     2414 C            38.068000000        35.449977312        67.196000000 C.ar      1 UNK      0.000000000
     2415 C            39.296000000        34.741022688        67.196000000 C.ar      1 UNK      0.000000000
     2416 C            39.296000000        37.576994328        67.196000000 C.ar      1 UNK      0.000000000
     2417 C            40.524000000        36.867988656        67.196000000 C.ar      1 UNK      0.000000000
     2418 C            40.524000000        35.449977312        67.196000000 C.ar      1 UNK      0.000000000
     2419 C            41.752000000        34.741022688        67.196000000 C.ar      1 UNK      0.000000000
     2420 C            41.752000000        37.576994328        67.196000000 C.ar      1 UNK      0.000000000
     2421 C            42.980000000        36.867988656        67.196000000 C.ar      1 UNK      0.000000000
     2422 C            42.980000000        35.449977312        67.196000000 C.ar      1 UNK      0.000000000
     2423 C            44.208000000        34.741022688        67.196000000 C.ar      1 UNK      0.000000000
     2424 C            44.208000000        37.576994328        67.196000000 C.ar      1 UNK      0.000000000
     2425 C            45.436000000        36.867988656        67.196000000 C.ar      1 UNK      0.000000000
     2426 C            45.436000000        35.449977312        67.196000000 C.ar      1 UNK      0.000000000
     2427 C            46.664000000        34.741022688        67.196000000 C.ar      1 UNK      0.000000000
     2428 C            46.664000000        37.576994328        67.196000000 C.ar      1 UNK      0.000000000
     2429 C            47.892000000        36.867988656        67.196000000 C.ar      1 UNK      0.000000000
     2430 C            47.892000000        35.449977312        67.196000000 C.ar      1 UNK      0.000000000
     2431 C             0.000000000        38.995005672        67.196000000 C.ar      1 UNK      0.000000000
     2432 C             0.000000000        41.830977312        67.196000000 C.ar      1 UNK      0.000000000
     2433 C             1.228000000        41.122022688        67.196000000 C.ar      1 UNK      0.000000000
     2434 C             1.228000000        39.704011344        67.196000000 C.ar      1 UNK      0.000000000
     2435 C             2.456000000        38.995005672        67.196000000 C.ar      1 UNK      0.000000000
     2436 C             2.456000000        41.830977312        67.196000000 C.ar      1 UNK      0.000000000
     2437 C             3.684000000        41.122022688        67.196000000 C.ar      1 UNK      0.000000000
     2438 C             3.684000000        39.704011344        67.196000000 C.ar      1 UNK      0.000000000
     2439 C             4.912000000        38.995005672        67.196000000 C.ar      1 UNK      0.000000000
     2440 C             4.912000000        41.830977312        67.196000000 C.ar      1 UNK      0.000000000
     2441 C             6.140000000        41.122022688        67.196000000 C.ar      1 UNK      0.000000000
     2442 C             6.140000000        39.704011344        67.196000000 C.ar      1 UNK      0.000000000
     2443 C             7.368000000        38.995005672        67.196000000 C.ar      1 UNK      0.000000000
     2444 C             7.368000000        41.830977312        67.196000000 C.ar      1 UNK      0.000000000
     2445 C             8.596000000        41.122022688        67.196000000 C.ar      1 UNK      0.000000000
     2446 C             8.596000000        39.704011344        67.196000000 C.ar      1 UNK      0.000000000
     2447 C             9.824000000        38.995005672        67.196000000 C.ar      1 UNK      0.000000000
     2448 C             9.824000000        41.830977312        67.196000000 C.ar      1 UNK      0.000000000
     2449 C            11.052000000        41.122022688        67.196000000 C.ar      1 UNK      0.000000000
     2450 C            11.052000000        39.704011344        67.196000000 C.ar      1 UNK      0.000000000
     2451 C            12.280000000        38.995005672        67.196000000 C.ar      1 UNK      0.000000000
     2452 C            12.280000000        41.830977312        67.196000000 C.ar      1 UNK      0.000000000
     2453 C            13.508000000        41.122022688        67.196000000 C.ar      1 UNK      0.000000000
     2454 C            13.508000000        39.704011344        67.196000000 C.ar      1 UNK      0.000000000
     2455 C            14.736000000        38.995005672        67.196000000 C.ar      1 UNK      0.000000000
     2456 C            14.736000000        41.830977312        67.196000000 C.ar      1 UNK      0.000000000
     2457 C            15.964000000        41.122022688        67.196000000 C.ar      1 UNK      0.000000000
     2458 C            15.964000000        39.704011344        67.196000000 C.ar      1 UNK      0.000000000
     2459 C            17.192000000        38.995005672        67.196000000 C.ar      1 UNK      0.000000000
     2460 C            17.192000000        41.830977312        67.196000000 C.ar      1 UNK      0.000000000
     2461 C            18.420000000        41.122022688        67.196000000 C.ar      1 UNK      0.000000000
     2462 C            18.420000000        39.704011344        67.196000000 C.ar      1 UNK      0.000000000
     2463 C            19.648000000        38.995005672        67.196000000 C.ar      1 UNK      0.000000000
     2464 C            19.648000000        41.830977312        67.196000000 C.ar      1 UNK      0.000000000
     2465 C            20.876000000        41.122022688        67.196000000 C.ar      1 UNK      0.000000000
     2466 C            20.876000000        39.704011344        67.196000000 C.ar      1 UNK      0.000000000
     2467 C            22.104000000        38.995005672        67.196000000 C.ar      1 UNK      0.000000000
     2468 C            22.104000000        41.830977312        67.196000000 C.ar      1 UNK      0.000000000
     2469 C            23.332000000        41.122022688        67.196000000 C.ar      1 UNK      0.000000000
     2470 C            23.332000000        39.704011344        67.196000000 C.ar      1 UNK      0.000000000
     2471 C            24.560000000        38.995005672        67.196000000 C.ar      1 UNK      0.000000000
     2472 C            24.560000000        41.830977312        67.196000000 C.ar      1 UNK      0.000000000
     2473 C            25.788000000        41.122022688        67.196000000 C.ar      1 UNK      0.000000000
     2474 C            25.788000000        39.704011344        67.196000000 C.ar      1 UNK      0.000000000
     2475 C            27.016000000        38.995005672        67.196000000 C.ar      1 UNK      0.000000000
     2476 C            27.016000000        41.830977312        67.196000000 C.ar      1 UNK      0.000000000
     2477 C            28.244000000        41.122022688        67.196000000 C.ar      1 UNK      0.000000000
     2478 C            28.244000000        39.704011344        67.196000000 C.ar      1 UNK      0.000000000
     2479 C            29.472000000        38.995005672        67.196000000 C.ar      1 UNK      0.000000000
     2480 C            29.472000000        41.830977312        67.196000000 C.ar      1 UNK      0.000000000
     2481 C            30.700000000        41.122022688        67.196000000 C.ar      1 UNK      0.000000000
     2482 C            30.700000000        39.704011344        67.196000000 C.ar      1 UNK      0.000000000
     2483 C            31.928000000        38.995005672        67.196000000 C.ar      1 UNK      0.000000000
     2484 C            31.928000000        41.830977312        67.196000000 C.ar      1 UNK      0.000000000
     2485 C            33.156000000        41.122022688        67.196000000 C.ar      1 UNK      0.000000000
     2486 C            33.156000000        39.704011344        67.196000000 C.ar      1 UNK      0.000000000
     2487 C            34.384000000        38.995005672        67.196000000 C.ar      1 UNK      0.000000000
     2488 C            34.384000000        41.830977312        67.196000000 C.ar      1 UNK      0.000000000
     2489 C            35.612000000        41.122022688        67.196000000 C.ar      1 UNK      0.000000000
     2490 C            35.612000000        39.704011344        67.196000000 C.ar      1 UNK      0.000000000
     2491 C            36.840000000        38.995005672        67.196000000 C.ar      1 UNK      0.000000000
     2492 C            36.840000000        41.830977312        67.196000000 C.ar      1 UNK      0.000000000
     2493 C            38.068000000        41.122022688        67.196000000 C.ar      1 UNK      0.000000000
     2494 C            38.068000000        39.704011344        67.196000000 C.ar      1 UNK      0.000000000
     2495 C            39.296000000        38.995005672        67.196000000 C.ar      1 UNK      0.000000000
     2496 C            39.296000000        41.830977312        67.196000000 C.ar      1 UNK      0.000000000
     2497 C            40.524000000        41.122022688        67.196000000 C.ar      1 UNK      0.000000000
     2498 C            40.524000000        39.704011344        67.196000000 C.ar      1 UNK      0.000000000
     2499 C            41.752000000        38.995005672        67.196000000 C.ar      1 UNK      0.000000000
     2500 C            41.752000000        41.830977312        67.196000000 C.ar      1 UNK      0.000000000
     2501 C            42.980000000        41.122022688        67.196000000 C.ar      1 UNK      0.000000000
     2502 C            42.980000000        39.704011344        67.196000000 C.ar      1 UNK      0.000000000
     2503 C            44.208000000        38.995005672        67.196000000 C.ar      1 UNK      0.000000000
     2504 C            44.208000000        41.830977312        67.196000000 C.ar      1 UNK      0.000000000
     2505 C            45.436000000        41.122022688        67.196000000 C.ar      1 UNK      0.000000000
     2506 C            45.436000000        39.704011344        67.196000000 C.ar      1 UNK      0.000000000
     2507 C            46.664000000        38.995005672        67.196000000 C.ar      1 UNK      0.000000000
     2508 C            46.664000000        41.830977312        67.196000000 C.ar      1 UNK      0.000000000
     2509 C            47.892000000        41.122022688        67.196000000 C.ar      1 UNK      0.000000000
     2510 C            47.892000000        39.704011344        67.196000000 C.ar      1 UNK      0.000000000
     2511 C             0.000000000        43.248988656        67.196000000 C.ar      1 UNK      0.000000000
     2512 C             0.000000000        46.085011344        67.196000000 C.ar      1 UNK      0.000000000
     2513 C             1.228000000        45.376005672        67.196000000 C.ar      1 UNK      0.000000000
     2514 C             1.228000000        43.957994328        67.196000000 C.ar      1 UNK      0.000000000
     2515 C             2.456000000        43.248988656        67.196000000 C.ar      1 UNK      0.000000000
     2516 C             2.456000000        46.085011344        67.196000000 C.ar      1 UNK      0.000000000
     2517 C             3.684000000        45.376005672        67.196000000 C.ar      1 UNK      0.000000000
     2518 C             3.684000000        43.957994328        67.196000000 C.ar      1 UNK      0.000000000
     2519 C             4.912000000        43.248988656        67.196000000 C.ar      1 UNK      0.000000000
     2520 C             4.912000000        46.085011344        67.196000000 C.ar      1 UNK      0.000000000
     2521 C             6.140000000        45.376005672        67.196000000 C.ar      1 UNK      0.000000000
     2522 C             6.140000000        43.957994328        67.196000000 C.ar      1 UNK      0.000000000
     2523 C             7.368000000        43.248988656        67.196000000 C.ar      1 UNK      0.000000000
     2524 C             7.368000000        46.085011344        67.196000000 C.ar      1 UNK      0.000000000
     2525 C             8.596000000        45.376005672        67.196000000 C.ar      1 UNK      0.000000000
     2526 C             8.596000000        43.957994328        67.196000000 C.ar      1 UNK      0.000000000
     2527 C             9.824000000        43.248988656        67.196000000 C.ar      1 UNK      0.000000000
     2528 C             9.824000000        46.085011344        67.196000000 C.ar      1 UNK      0.000000000
     2529 C            11.052000000        45.376005672        67.196000000 C.ar      1 UNK      0.000000000
     2530 C            11.052000000        43.957994328        67.196000000 C.ar      1 UNK      0.000000000
     2531 C            12.280000000        43.248988656        67.196000000 C.ar      1 UNK      0.000000000
     2532 C            12.280000000        46.085011344        67.196000000 C.ar      1 UNK      0.000000000
     2533 C            13.508000000        45.376005672        67.196000000 C.ar      1 UNK      0.000000000
     2534 C            13.508000000        43.957994328        67.196000000 C.ar      1 UNK      0.000000000
     2535 C            14.736000000        43.248988656        67.196000000 C.ar      1 UNK      0.000000000
     2536 C            14.736000000        46.085011344        67.196000000 C.ar      1 UNK      0.000000000
     2537 C            15.964000000        45.376005672        67.196000000 C.ar      1 UNK      0.000000000
     2538 C            15.964000000        43.957994328        67.196000000 C.ar      1 UNK      0.000000000
     2539 C            17.192000000        43.248988656        67.196000000 C.ar      1 UNK      0.000000000
     2540 C            17.192000000        46.085011344        67.196000000 C.ar      1 UNK      0.000000000
     2541 C            18.420000000        45.376005672        67.196000000 C.ar      1 UNK      0.000000000
     2542 C            18.420000000        43.957994328        67.196000000 C.ar      1 UNK      0.000000000
     2543 C            19.648000000        43.248988656        67.196000000 C.ar      1 UNK      0.000000000
     2544 C            19.648000000        46.085011344        67.196000000 C.ar      1 UNK      0.000000000
     2545 C            20.876000000        45.376005672        67.196000000 C.ar      1 UNK      0.000000000
     2546 C            20.876000000        43.957994328        67.196000000 C.ar      1 UNK      0.000000000
     2547 C            22.104000000        43.248988656        67.196000000 C.ar      1 UNK      0.000000000
     2548 C            22.104000000        46.085011344        67.196000000 C.ar      1 UNK      0.000000000
     2549 C            23.332000000        45.376005672        67.196000000 C.ar      1 UNK      0.000000000
     2550 C            23.332000000        43.957994328        67.196000000 C.ar      1 UNK      0.000000000
     2551 C            24.560000000        43.248988656        67.196000000 C.ar      1 UNK      0.000000000
     2552 C            24.560000000        46.085011344        67.196000000 C.ar      1 UNK      0.000000000
     2553 C            25.788000000        45.376005672        67.196000000 C.ar      1 UNK      0.000000000
     2554 C            25.788000000        43.957994328        67.196000000 C.ar      1 UNK      0.000000000
     2555 C            27.016000000        43.248988656        67.196000000 C.ar      1 UNK      0.000000000
     2556 C            27.016000000        46.085011344        67.196000000 C.ar      1 UNK      0.000000000
     2557 C            28.244000000        45.376005672        67.196000000 C.ar      1 UNK      0.000000000
     2558 C            28.244000000        43.957994328        67.196000000 C.ar      1 UNK      0.000000000
     2559 C            29.472000000        43.248988656        67.196000000 C.ar      1 UNK      0.000000000
     2560 C            29.472000000        46.085011344        67.196000000 C.ar      1 UNK      0.000000000
     2561 C            30.700000000        45.376005672        67.196000000 C.ar      1 UNK      0.000000000
     2562 C            30.700000000        43.957994328        67.196000000 C.ar      1 UNK      0.000000000
     2563 C            31.928000000        43.248988656        67.196000000 C.ar      1 UNK      0.000000000
     2564 C            31.928000000        46.085011344        67.196000000 C.ar      1 UNK      0.000000000
     2565 C            33.156000000        45.376005672        67.196000000 C.ar      1 UNK      0.000000000
     2566 C            33.156000000        43.957994328        67.196000000 C.ar      1 UNK      0.000000000
     2567 C            34.384000000        43.248988656        67.196000000 C.ar      1 UNK      0.000000000
     2568 C            34.384000000        46.085011344        67.196000000 C.ar      1 UNK      0.000000000
     2569 C            35.612000000        45.376005672        67.196000000 C.ar      1 UNK      0.000000000
     2570 C            35.612000000        43.957994328        67.196000000 C.ar      1 UNK      0.000000000
     2571 C            36.840000000        43.248988656        67.196000000 C.ar      1 UNK      0.000000000
     2572 C            36.840000000        46.085011344        67.196000000 C.ar      1 UNK      0.000000000
     2573 C            38.068000000        45.376005672        67.196000000 C.ar      1 UNK      0.000000000
     2574 C            38.068000000        43.957994328        67.196000000 C.ar      1 UNK      0.000000000
     2575 C            39.296000000        43.248988656        67.196000000 C.ar      1 UNK      0.000000000
     2576 C            39.296000000        46.085011344        67.196000000 C.ar      1 UNK      0.000000000
     2577 C            40.524000000        45.376005672        67.196000000 C.ar      1 UNK      0.000000000
     2578 C            40.524000000        43.957994328        67.196000000 C.ar      1 UNK      0.000000000
     2579 C            41.752000000        43.248988656        67.196000000 C.ar      1 UNK      0.000000000
     2580 C            41.752000000        46.085011344        67.196000000 C.ar      1 UNK      0.000000000
     2581 C            42.980000000        45.376005672        67.196000000 C.ar      1 UNK      0.000000000
     2582 C            42.980000000        43.957994328        67.196000000 C.ar      1 UNK      0.000000000
     2583 C            44.208000000        43.248988656        67.196000000 C.ar      1 UNK      0.000000000
     2584 C            44.208000000        46.085011344        67.196000000 C.ar      1 UNK      0.000000000
     2585 C            45.436000000        45.376005672        67.196000000 C.ar      1 UNK      0.000000000
     2586 C            45.436000000        43.957994328        67.196000000 C.ar      1 UNK      0.000000000
     2587 C            46.664000000        43.248988656        67.196000000 C.ar      1 UNK      0.000000000
     2588 C            46.664000000        46.085011344        67.196000000 C.ar      1 UNK      0.000000000
     2589 C            47.892000000        45.376005672        67.196000000 C.ar      1 UNK      0.000000000
     2590 C            47.892000000        43.957994328        67.196000000 C.ar      1 UNK      0.000000000
     2591 C             0.000000000        47.503022688        67.196000000 C.ar      1 UNK      0.000000000
     2592 C             0.000000000        50.338994328        67.196000000 C.ar      1 UNK      0.000000000
     2593 C             1.228000000        49.629988656        67.196000000 C.ar      1 UNK      0.000000000
     2594 C             1.228000000        48.211977312        67.196000000 C.ar      1 UNK      0.000000000
     2595 C             2.456000000        47.503022688        67.196000000 C.ar      1 UNK      0.000000000
     2596 C             2.456000000        50.338994328        67.196000000 C.ar      1 UNK      0.000000000
     2597 C             3.684000000        49.629988656        67.196000000 C.ar      1 UNK      0.000000000
     2598 C             3.684000000        48.211977312        67.196000000 C.ar      1 UNK      0.000000000
     2599 C             4.912000000        47.503022688        67.196000000 C.ar      1 UNK      0.000000000
     2600 C             4.912000000        50.338994328        67.196000000 C.ar      1 UNK      0.000000000
     2601 C             6.140000000        49.629988656        67.196000000 C.ar      1 UNK      0.000000000
     2602 C             6.140000000        48.211977312        67.196000000 C.ar      1 UNK      0.000000000
     2603 C             7.368000000        47.503022688        67.196000000 C.ar      1 UNK      0.000000000
     2604 C             7.368000000        50.338994328        67.196000000 C.ar      1 UNK      0.000000000
     2605 C             8.596000000        49.629988656        67.196000000 C.ar      1 UNK      0.000000000
     2606 C             8.596000000        48.211977312        67.196000000 C.ar      1 UNK      0.000000000
     2607 C             9.824000000        47.503022688        67.196000000 C.ar      1 UNK      0.000000000
     2608 C             9.824000000        50.338994328        67.196000000 C.ar      1 UNK      0.000000000
     2609 C            11.052000000        49.629988656        67.196000000 C.ar      1 UNK      0.000000000
     2610 C            11.052000000        48.211977312        67.196000000 C.ar      1 UNK      0.000000000
     2611 C            12.280000000        47.503022688        67.196000000 C.ar      1 UNK      0.000000000
     2612 C            12.280000000        50.338994328        67.196000000 C.ar      1 UNK      0.000000000
     2613 C            13.508000000        49.629988656        67.196000000 C.ar      1 UNK      0.000000000
     2614 C            13.508000000        48.211977312        67.196000000 C.ar      1 UNK      0.000000000
     2615 C            14.736000000        47.503022688        67.196000000 C.ar      1 UNK      0.000000000
     2616 C            14.736000000        50.338994328        67.196000000 C.ar      1 UNK      0.000000000
     2617 C            15.964000000        49.629988656        67.196000000 C.ar      1 UNK      0.000000000
     2618 C            15.964000000        48.211977312        67.196000000 C.ar      1 UNK      0.000000000
     2619 C            17.192000000        47.503022688        67.196000000 C.ar      1 UNK      0.000000000
     2620 C            17.192000000        50.338994328        67.196000000 C.ar      1 UNK      0.000000000
     2621 C            18.420000000        49.629988656        67.196000000 C.ar      1 UNK      0.000000000
     2622 C            18.420000000        48.211977312        67.196000000 C.ar      1 UNK      0.000000000
     2623 C            19.648000000        47.503022688        67.196000000 C.ar      1 UNK      0.000000000
     2624 C            19.648000000        50.338994328        67.196000000 C.ar      1 UNK      0.000000000
     2625 C            20.876000000        49.629988656        67.196000000 C.ar      1 UNK      0.000000000
     2626 C            20.876000000        48.211977312        67.196000000 C.ar      1 UNK      0.000000000
     2627 C            22.104000000        47.503022688        67.196000000 C.ar      1 UNK      0.000000000
     2628 C            22.104000000        50.338994328        67.196000000 C.ar      1 UNK      0.000000000
     2629 C            23.332000000        49.629988656        67.196000000 C.ar      1 UNK      0.000000000
     2630 C            23.332000000        48.211977312        67.196000000 C.ar      1 UNK      0.000000000
     2631 C            24.560000000        47.503022688        67.196000000 C.ar      1 UNK      0.000000000
     2632 C            24.560000000        50.338994328        67.196000000 C.ar      1 UNK      0.000000000
     2633 C            25.788000000        49.629988656        67.196000000 C.ar      1 UNK      0.000000000
     2634 C            25.788000000        48.211977312        67.196000000 C.ar      1 UNK      0.000000000
     2635 C            27.016000000        47.503022688        67.196000000 C.ar      1 UNK      0.000000000
     2636 C            27.016000000        50.338994328        67.196000000 C.ar      1 UNK      0.000000000
     2637 C            28.244000000        49.629988656        67.196000000 C.ar      1 UNK      0.000000000
     2638 C            28.244000000        48.211977312        67.196000000 C.ar      1 UNK      0.000000000
     2639 C            29.472000000        47.503022688        67.196000000 C.ar      1 UNK      0.000000000
     2640 C            29.472000000        50.338994328        67.196000000 C.ar      1 UNK      0.000000000
     2641 C            30.700000000        49.629988656        67.196000000 C.ar      1 UNK      0.000000000
     2642 C            30.700000000        48.211977312        67.196000000 C.ar      1 UNK      0.000000000
     2643 C            31.928000000        47.503022688        67.196000000 C.ar      1 UNK      0.000000000
     2644 C            31.928000000        50.338994328        67.196000000 C.ar      1 UNK      0.000000000
     2645 C            33.156000000        49.629988656        67.196000000 C.ar      1 UNK      0.000000000
     2646 C            33.156000000        48.211977312        67.196000000 C.ar      1 UNK      0.000000000
     2647 C            34.384000000        47.503022688        67.196000000 C.ar      1 UNK      0.000000000
     2648 C            34.384000000        50.338994328        67.196000000 C.ar      1 UNK      0.000000000
     2649 C            35.612000000        49.629988656        67.196000000 C.ar      1 UNK      0.000000000
     2650 C            35.612000000        48.211977312        67.196000000 C.ar      1 UNK      0.000000000
     2651 C            36.840000000        47.503022688        67.196000000 C.ar      1 UNK      0.000000000
     2652 C            36.840000000        50.338994328        67.196000000 C.ar      1 UNK      0.000000000
     2653 C            38.068000000        49.629988656        67.196000000 C.ar      1 UNK      0.000000000
     2654 C            38.068000000        48.211977312        67.196000000 C.ar      1 UNK      0.000000000
     2655 C            39.296000000        47.503022688        67.196000000 C.ar      1 UNK      0.000000000
     2656 C            39.296000000        50.338994328        67.196000000 C.ar      1 UNK      0.000000000
     2657 C            40.524000000        49.629988656        67.196000000 C.ar      1 UNK      0.000000000
     2658 C            40.524000000        48.211977312        67.196000000 C.ar      1 UNK      0.000000000
     2659 C            41.752000000        47.503022688        67.196000000 C.ar      1 UNK      0.000000000
     2660 C            41.752000000        50.338994328        67.196000000 C.ar      1 UNK      0.000000000
     2661 C            42.980000000        49.629988656        67.196000000 C.ar      1 UNK      0.000000000
     2662 C            42.980000000        48.211977312        67.196000000 C.ar      1 UNK      0.000000000
     2663 C            44.208000000        47.503022688        67.196000000 C.ar      1 UNK      0.000000000
     2664 C            44.208000000        50.338994328        67.196000000 C.ar      1 UNK      0.000000000
     2665 C            45.436000000        49.629988656        67.196000000 C.ar      1 UNK      0.000000000
     2666 C            45.436000000        48.211977312        67.196000000 C.ar      1 UNK      0.000000000
     2667 C            46.664000000        47.503022688        67.196000000 C.ar      1 UNK      0.000000000
     2668 C            46.664000000        50.338994328        67.196000000 C.ar      1 UNK      0.000000000
     2669 C            47.892000000        49.629988656        67.196000000 C.ar      1 UNK      0.000000000
     2670 C            47.892000000        48.211977312        67.196000000 C.ar      1 UNK      0.000000000
@<TRIPOS>BOND
        1         3       884 ar    
        2         3         6 ar    
        3         6         7 ar    
        4         7       888 ar    
        5         7        10 ar    
        6        10        11 ar    
        7        11       892 ar    
        8        11        14 ar    
        9        15       896 ar    
       10        14        15 ar    
       11        15        18 ar    
       12        18        19 ar    
       13        19       900 ar    
       14        19        22 ar    
       15        22        23 ar    
       16        23       904 ar    
       17        23        26 ar    
       18        27       908 ar    
       19        26        27 ar    
       20        27        30 ar    
       21        30        31 ar    
       22        31       912 ar    
       23        31        34 ar    
       24        34        35 ar    
       25        35       916 ar    
       26        35        38 ar    
       27        39       920 ar    
       28        38        39 ar    
       29        39        42 ar    
       30        42        43 ar    
       31        43       924 ar    
       32        43        46 ar    
       33        46        47 ar    
       34        47       928 ar    
       35        47        50 ar    
       36        51       932 ar    
       37        50        51 ar    
       38        51        54 ar    
       39        54        55 ar    
       40        55       936 ar    
       41        55        58 ar    
       42        58        59 ar    
       43        59       940 ar    
       44        59        62 ar    
       45        63       944 ar    
       46        62        63 ar    
       47        63        66 ar    
       48        66        67 ar    
       49        67       948 ar    
       50        67        70 ar    
       51        70        71 ar    
       52        71       952 ar    
       53        71        74 ar    
       54        75       956 ar    
       55        74        75 ar    
       56        75        78 ar    
       57        78        79 ar    
       58        79       960 ar    
       59         2        79 ar    
       60         2         3 ar    
       61         4        83 ar    
       62         4         5 ar    
       63         5         6 ar    
       64         5         8 ar    
       65         9        10 ar    
       66         8         9 ar    
       67         8        87 ar    
       68         9        12 ar    
       69        12        91 ar    
       70        12        13 ar    
       71        13        14 ar    
       72        13        16 ar    
       73        16        95 ar    
       74        16        17 ar    
       75        17        18 ar    
       76        17        20 ar    
       77        21        22 ar    
       78        20        21 ar    
       79        20        99 ar    
       80        21        24 ar    
       81        24       103 ar    
       82        24        25 ar    
       83        25        26 ar    
       84        25        28 ar    
       85        28       107 ar    
       86        28        29 ar    
       87        29        30 ar    
       88        29        32 ar    
       89        33        34 ar    
       90        32        33 ar    
       91        32       111 ar    
       92        33        36 ar    
       93        36       115 ar    
       94        36        37 ar    
       95        37        38 ar    
       96        37        40 ar    
       97        40       119 ar    
       98        40        41 ar    
       99        41        42 ar    
      100        41        44 ar    
      101        45        46 ar    
      102        44        45 ar    
      103        44       123 ar    
      104        45        48 ar    
      105        48       127 ar    
      106        48        49 ar    
      107        49        50 ar    
      108        49        52 ar    
      109        52       131 ar    
      110        52        53 ar    
      111        53        54 ar    
      112        53        56 ar    
      113        57        58 ar    
      114        56        57 ar    
      115        56       135 ar    
      116        57        60 ar    
      117        60       139 ar    
      118        60        61 ar    
      119        61        62 ar    
      120        61        64 ar    
      121        64       143 ar    
      122        64        65 ar    
      123        65        66 ar    
      124        65        68 ar    
      125        69        70 ar    
      126        68        69 ar    
      127        68       147 ar    
      128        69        72 ar    
      129        72       151 ar    
      130        72        73 ar    
      131        73        74 ar    
      132        73        76 ar    
      133        76       155 ar    
      134        76        77 ar    
      135        77        78 ar    
      136        77        80 ar    
      137         1         2 ar    
      138         1        80 ar    
      139        80       159 ar    
      140         1         4 ar    
      141        83        86 ar    
      142        87        90 ar    
      143        91        94 ar    
      144        95        98 ar    
      145        99       102 ar    
      146       103       106 ar    
      147       107       110 ar    
      148       111       114 ar    
      149       115       118 ar    
      150       119       122 ar    
      151       123       126 ar    
      152       127       130 ar    
      153       131       134 ar    
      154       135       138 ar    
      155       139       142 ar    
      156       143       146 ar    
      157       147       150 ar    
      158       151       154 ar    
      159       155       158 ar    
      160        85        86 ar    
      161        86        87 ar    
      162        85        88 ar    
      163        89        90 ar    
      164        90        91 ar    
      165        89        92 ar    
      166        94        95 ar    
      167        93        94 ar    
      168        93        96 ar    
      169        97        98 ar    
      170        98        99 ar    
      171        97       100 ar    
      172       101       102 ar    
      173       102       103 ar    
      174       101       104 ar    
      175       106       107 ar    
      176       105       106 ar    
      177       105       108 ar    
      178       109       110 ar    
      179       110       111 ar    
      180       109       112 ar    
      181       113       114 ar    
      182       114       115 ar    
      183       113       116 ar    
      184       118       119 ar    
      185       117       118 ar    
      186       117       120 ar    
      187       121       122 ar    
      188       122       123 ar    
      189       121       124 ar    
      190       125       126 ar    
      191       126       127 ar    
      192       125       128 ar    
      193       130       131 ar    
      194       129       130 ar    
      195       129       132 ar    
      196       133       134 ar    
      197       134       135 ar    
      198       133       136 ar    
      199       137       138 ar    
      200       138       139 ar    
      201       137       140 ar    
      202       142       143 ar    
      203       141       142 ar    
      204       141       144 ar    
      205       145       146 ar    
      206       146       147 ar    
      207       145       148 ar    
      208       149       150 ar    
      209       150       151 ar    
      210       149       152 ar    
      211       154       155 ar    
      212       153       154 ar    
      213       153       156 ar    
      214       157       158 ar    
      215       158       159 ar    
      216       157       160 ar    
      217        82       159 ar    
      218        81        82 ar    
      219        81       160 ar    
      220        82        83 ar    
      221        81        84 ar    
      222        84       163 ar    
      223        84        85 ar    
      224        88        89 ar    
      225        88       167 ar    
      226        92       171 ar    
      227        92        93 ar    
      228        96       175 ar    
      229        96        97 ar    
      230       100       101 ar    
      231       100       179 ar    
      232       104       183 ar    
      233       104       105 ar    
      234       108       187 ar    
      235       108       109 ar    
      236       112       113 ar    
      237       112       191 ar    
      238       116       195 ar    
      239       116       117 ar    
      240       120       199 ar    
      241       120       121 ar    
      242       124       125 ar    
      243       124       203 ar    
      244       128       207 ar    
      245       128       129 ar    
      246       132       211 ar    
      247       132       133 ar    
      248       136       137 ar    
      249       136       215 ar    
      250       140       219 ar    
      251       140       141 ar    
      252       144       223 ar    
      253       144       145 ar    
      254       148       149 ar    
      255       148       227 ar    
      256       152       231 ar    
      257       152       153 ar    
      258       156       235 ar    
      259       156       157 ar    
      260       160       239 ar    
      261       163       166 ar    
      262       166       167 ar    
      263       167       170 ar    
      264       170       171 ar    
      265       171       174 ar    
      266       174       175 ar    
      267       175       178 ar    
      268       178       179 ar    
      269       179       182 ar    
      270       182       183 ar    
      271       183       186 ar    
      272       186       187 ar    
      273       187       190 ar    
      274       190       191 ar    
      275       191       194 ar    
      276       194       195 ar    
      277       195       198 ar    
      278       198       199 ar    
      279       199       202 ar    
      280       202       203 ar    
      281       203       206 ar    
      282       206       207 ar    
      283       207       210 ar    
      284       210       211 ar    
      285       211       214 ar    
      286       214       215 ar    
      287       215       218 ar    
      288       218       219 ar    
      289       219       222 ar    
      290       222       223 ar    
      291       223       226 ar    
      292       226       227 ar    
      293       227       230 ar    
      294       230       231 ar    
      295       231       234 ar    
      296       234       235 ar    
      297       235       238 ar    
      298       238       239 ar    
      299       162       239 ar    
      300       162       163 ar    
      301       164       243 ar    
      302       164       165 ar    
      303       165       166 ar    
      304       165       168 ar    
      305       169       170 ar    
      306       168       169 ar    
      307       168       247 ar    
      308       169       172 ar    
      309       172       251 ar    
      310       172       173 ar    
      311       173       174 ar    
      312       173       176 ar    
      313       176       255 ar    
      314       176       177 ar    
      315       177       178 ar    
      316       177       180 ar    
      317       181       182 ar    
      318       180       181 ar    
      319       180       259 ar    
      320       181       184 ar    
      321       184       263 ar    
      322       184       185 ar    
      323       185       186 ar    
      324       185       188 ar    
      325       188       267 ar    
      326       188       189 ar    
      327       189       190 ar    
      328       189       192 ar    
      329       193       194 ar    
      330       192       193 ar    
      331       192       271 ar    
      332       193       196 ar    
      333       196       275 ar    
      334       196       197 ar    
      335       197       198 ar    
      336       197       200 ar    
      337       200       279 ar    
      338       200       201 ar    
      339       201       202 ar    
      340       201       204 ar    
      341       205       206 ar    
      342       204       205 ar    
      343       204       283 ar    
      344       205       208 ar    
      345       208       287 ar    
      346       208       209 ar    
      347       209       210 ar    
      348       209       212 ar    
      349       212       291 ar    
      350       212       213 ar    
      351       213       214 ar    
      352       213       216 ar    
      353       217       218 ar    
      354       216       217 ar    
      355       216       295 ar    
      356       217       220 ar    
      357       220       299 ar    
      358       220       221 ar    
      359       221       222 ar    
      360       221       224 ar    
      361       224       303 ar    
      362       224       225 ar    
      363       225       226 ar    
      364       225       228 ar    
      365       229       230 ar    
      366       228       229 ar    
      367       228       307 ar    
      368       229       232 ar    
      369       232       311 ar    
      370       232       233 ar    
      371       233       234 ar    
      372       233       236 ar    
      373       236       315 ar    
      374       236       237 ar    
      375       237       238 ar    
      376       237       240 ar    
      377       161       162 ar    
      378       161       240 ar    
      379       240       319 ar    
      380       161       164 ar    
      381       243       246 ar    
      382       246       247 ar    
      383       247       250 ar    
      384       250       251 ar    
      385       251       254 ar    
      386       254       255 ar    
      387       255       258 ar    
      388       258       259 ar    
      389       259       262 ar    
      390       262       263 ar    
      391       263       266 ar    
      392       266       267 ar    
      393       267       270 ar    
      394       270       271 ar    
      395       271       274 ar    
      396       274       275 ar    
      397       275       278 ar    
      398       278       279 ar    
      399       279       282 ar    
      400       282       283 ar    
      401       283       286 ar    
      402       286       287 ar    
      403       287       290 ar    
      404       290       291 ar    
      405       291       294 ar    
      406       294       295 ar    
      407       295       298 ar    
      408       298       299 ar    
      409       299       302 ar    
      410       302       303 ar    
      411       303       306 ar    
      412       306       307 ar    
      413       307       310 ar    
      414       310       311 ar    
      415       311       314 ar    
      416       314       315 ar    
      417       315       318 ar    
      418       318       319 ar    
      419       242       319 ar    
      420       242       243 ar    
      421       244       323 ar    
      422       244       245 ar    
      423       245       246 ar    
      424       245       248 ar    
      425       249       250 ar    
      426       248       249 ar    
      427       248       327 ar    
      428       249       252 ar    
      429       252       331 ar    
      430       252       253 ar    
      431       253       254 ar    
      432       253       256 ar    
      433       256       335 ar    
      434       256       257 ar    
      435       257       258 ar    
      436       257       260 ar    
      437       261       262 ar    
      438       260       261 ar    
      439       260       339 ar    
      440       261       264 ar    
      441       264       343 ar    
      442       264       265 ar    
      443       265       266 ar    
      444       265       268 ar    
      445       268       347 ar    
      446       268       269 ar    
      447       269       270 ar    
      448       269       272 ar    
      449       273       274 ar    
      450       272       273 ar    
      451       272       351 ar    
      452       273       276 ar    
      453       276       355 ar    
      454       276       277 ar    
      455       277       278 ar    
      456       277       280 ar    
      457       280       359 ar    
      458       280       281 ar    
      459       281       282 ar    
      460       281       284 ar    
      461       285       286 ar    
      462       284       285 ar    
      463       284       363 ar    
      464       285       288 ar    
      465       288       367 ar    
      466       288       289 ar    
      467       289       290 ar    
      468       289       292 ar    
      469       292       371 ar    
      470       292       293 ar    
      471       293       294 ar    
      472       293       296 ar    
      473       297       298 ar    
      474       296       297 ar    
      475       296       375 ar    
      476       297       300 ar    
      477       300       379 ar    
      478       300       301 ar    
      479       301       302 ar    
      480       301       304 ar    
      481       304       383 ar    
      482       304       305 ar    
      483       305       306 ar    
      484       305       308 ar    
      485       309       310 ar    
      486       308       309 ar    
      487       308       387 ar    
      488       309       312 ar    
      489       312       391 ar    
      490       312       313 ar    
      491       313       314 ar    
      492       313       316 ar    
      493       316       395 ar    
      494       316       317 ar    
      495       317       318 ar    
      496       317       320 ar    
      497       241       242 ar    
      498       241       320 ar    
      499       320       399 ar    
      500       241       244 ar    
      501       323       326 ar    
      502       327       330 ar    
      503       331       334 ar    
      504       335       338 ar    
      505       339       342 ar    
      506       343       346 ar    
      507       347       350 ar    
      508       351       354 ar    
      509       355       358 ar    
      510       359       362 ar    
      511       363       366 ar    
      512       367       370 ar    
      513       371       374 ar    
      514       375       378 ar    
      515       379       382 ar    
      516       383       386 ar    
      517       387       390 ar    
      518       391       394 ar    
      519       395       398 ar    
      520       325       326 ar    
      521       326       327 ar    
      522       325       328 ar    
      523       329       330 ar    
      524       330       331 ar    
      525       329       332 ar    
      526       334       335 ar    
      527       333       334 ar    
      528       333       336 ar    
      529       337       338 ar    
      530       338       339 ar    
      531       337       340 ar    
      532       341       342 ar    
      533       342       343 ar    
      534       341       344 ar    
      535       346       347 ar    
      536       345       346 ar    
      537       345       348 ar    
      538       349       350 ar    
      539       350       351 ar    
      540       349       352 ar    
      541       353       354 ar    
      542       354       355 ar    
      543       353       356 ar    
      544       358       359 ar    
      545       357       358 ar    
      546       357       360 ar    
      547       361       362 ar    
      548       362       363 ar    
      549       361       364 ar    
      550       365       366 ar    
      551       366       367 ar    
      552       365       368 ar    
      553       370       371 ar    
      554       369       370 ar    
      555       369       372 ar    
      556       373       374 ar    
      557       374       375 ar    
      558       373       376 ar    
      559       377       378 ar    
      560       378       379 ar    
      561       377       380 ar    
      562       382       383 ar    
      563       381       382 ar    
      564       381       384 ar    
      565       385       386 ar    
      566       386       387 ar    
      567       385       388 ar    
      568       389       390 ar    
      569       390       391 ar    
      570       389       392 ar    
      571       394       395 ar    
      572       393       394 ar    
      573       393       396 ar    
      574       397       398 ar    
      575       398       399 ar    
      576       397       400 ar    
      577       322       399 ar    
      578       321       322 ar    
      579       321       400 ar    
      580       322       323 ar    
      581       321       324 ar    
      582       324       403 ar    
      583       324       325 ar    
      584       328       329 ar    
      585       328       407 ar    
      586       332       411 ar    
      587       332       333 ar    
      588       336       415 ar    
      589       336       337 ar    
      590       340       341 ar    
      591       340       419 ar    
      592       344       423 ar    
      593       344       345 ar    
      594       348       427 ar    
      595       348       349 ar    
      596       352       353 ar    
      597       352       431 ar    
      598       356       435 ar    
      599       356       357 ar    
      600       360       439 ar    
      601       360       361 ar    
      602       364       365 ar    
      603       364       443 ar    
      604       368       447 ar    
      605       368       369 ar    
      606       372       451 ar    
      607       372       373 ar    
      608       376       377 ar    
      609       376       455 ar    
      610       380       459 ar    
      611       380       381 ar    
      612       384       463 ar    
      613       384       385 ar    
      614       388       389 ar    
      615       388       467 ar    
      616       392       471 ar    
      617       392       393 ar    
      618       396       475 ar    
      619       396       397 ar    
      620       400       479 ar    
      621       403       406 ar    
      622       406       407 ar    
      623       407       410 ar    
      624       410       411 ar    
      625       411       414 ar    
      626       414       415 ar    
      627       415       418 ar    
      628       418       419 ar    
      629       419       422 ar    
      630       422       423 ar    
      631       423       426 ar    
      632       426       427 ar    
      633       427       430 ar    
      634       430       431 ar    
      635       431       434 ar    
      636       434       435 ar    
      637       435       438 ar    
      638       438       439 ar    
      639       439       442 ar    
      640       442       443 ar    
      641       443       446 ar    
      642       446       447 ar    
      643       447       450 ar    
      644       450       451 ar    
      645       451       454 ar    
      646       454       455 ar    
      647       455       458 ar    
      648       458       459 ar    
      649       459       462 ar    
      650       462       463 ar    
      651       463       466 ar    
      652       466       467 ar    
      653       467       470 ar    
      654       470       471 ar    
      655       471       474 ar    
      656       474       475 ar    
      657       475       478 ar    
      658       478       479 ar    
      659       402       479 ar    
      660       402       403 ar    
      661       404       483 ar    
      662       404       405 ar    
      663       405       406 ar    
      664       405       408 ar    
      665       409       410 ar    
      666       408       409 ar    
      667       408       487 ar    
      668       409       412 ar    
      669       412       491 ar    
      670       412       413 ar    
      671       413       414 ar    
      672       413       416 ar    
      673       416       495 ar    
      674       416       417 ar    
      675       417       418 ar    
      676       417       420 ar    
      677       421       422 ar    
      678       420       421 ar    
      679       420       499 ar    
      680       421       424 ar    
      681       424       503 ar    
      682       424       425 ar    
      683       425       426 ar    
      684       425       428 ar    
      685       428       507 ar    
      686       428       429 ar    
      687       429       430 ar    
      688       429       432 ar    
      689       433       434 ar    
      690       432       433 ar    
      691       432       511 ar    
      692       433       436 ar    
      693       436       515 ar    
      694       436       437 ar    
      695       437       438 ar    
      696       437       440 ar    
      697       440       519 ar    
      698       440       441 ar    
      699       441       442 ar    
      700       441       444 ar    
      701       445       446 ar    
      702       444       445 ar    
      703       444       523 ar    
      704       445       448 ar    
      705       448       527 ar    
      706       448       449 ar    
      707       449       450 ar    
      708       449       452 ar    
      709       452       531 ar    
      710       452       453 ar    
      711       453       454 ar    
      712       453       456 ar    
      713       457       458 ar    
      714       456       457 ar    
      715       456       535 ar    
      716       457       460 ar    
      717       460       539 ar    
      718       460       461 ar    
      719       461       462 ar    
      720       461       464 ar    
      721       464       543 ar    
      722       464       465 ar    
      723       465       466 ar    
      724       465       468 ar    
      725       469       470 ar    
      726       468       469 ar    
      727       468       547 ar    
      728       469       472 ar    
      729       472       551 ar    
      730       472       473 ar    
      731       473       474 ar    
      732       473       476 ar    
      733       476       555 ar    
      734       476       477 ar    
      735       477       478 ar    
      736       477       480 ar    
      737       401       402 ar    
      738       401       480 ar    
      739       480       559 ar    
      740       401       404 ar    
      741       483       486 ar    
      742       486       487 ar    
      743       487       490 ar    
      744       490       491 ar    
      745       491       494 ar    
      746       494       495 ar    
      747       495       498 ar    
      748       498       499 ar    
      749       499       502 ar    
      750       502       503 ar    
      751       503       506 ar    
      752       506       507 ar    
      753       507       510 ar    
      754       510       511 ar    
      755       511       514 ar    
      756       514       515 ar    
      757       515       518 ar    
      758       518       519 ar    
      759       519       522 ar    
      760       522       523 ar    
      761       523       526 ar    
      762       526       527 ar    
      763       527       530 ar    
      764       530       531 ar    
      765       531       534 ar    
      766       534       535 ar    
      767       535       538 ar    
      768       538       539 ar    
      769       539       542 ar    
      770       542       543 ar    
      771       543       546 ar    
      772       546       547 ar    
      773       547       550 ar    
      774       550       551 ar    
      775       551       554 ar    
      776       554       555 ar    
      777       555       558 ar    
      778       558       559 ar    
      779       482       559 ar    
      780       482       483 ar    
      781       484       563 ar    
      782       484       485 ar    
      783       485       486 ar    
      784       485       488 ar    
      785       489       490 ar    
      786       488       489 ar    
      787       488       567 ar    
      788       489       492 ar    
      789       492       571 ar    
      790       492       493 ar    
      791       493       494 ar    
      792       493       496 ar    
      793       496       575 ar    
      794       496       497 ar    
      795       497       498 ar    
      796       497       500 ar    
      797       501       502 ar    
      798       500       501 ar    
      799       500       579 ar    
      800       501       504 ar    
      801       504       583 ar    
      802       504       505 ar    
      803       505       506 ar    
      804       505       508 ar    
      805       508       587 ar    
      806       508       509 ar    
      807       509       510 ar    
      808       509       512 ar    
      809       513       514 ar    
      810       512       513 ar    
      811       512       591 ar    
      812       513       516 ar    
      813       516       595 ar    
      814       516       517 ar    
      815       517       518 ar    
      816       517       520 ar    
      817       520       599 ar    
      818       520       521 ar    
      819       521       522 ar    
      820       521       524 ar    
      821       525       526 ar    
      822       524       525 ar    
      823       524       603 ar    
      824       525       528 ar    
      825       528       607 ar    
      826       528       529 ar    
      827       529       530 ar    
      828       529       532 ar    
      829       532       611 ar    
      830       532       533 ar    
      831       533       534 ar    
      832       533       536 ar    
      833       537       538 ar    
      834       536       537 ar    
      835       536       615 ar    
      836       537       540 ar    
      837       540       619 ar    
      838       540       541 ar    
      839       541       542 ar    
      840       541       544 ar    
      841       544       623 ar    
      842       544       545 ar    
      843       545       546 ar    
      844       545       548 ar    
      845       549       550 ar    
      846       548       549 ar    
      847       548       627 ar    
      848       549       552 ar    
      849       552       631 ar    
      850       552       553 ar    
      851       553       554 ar    
      852       553       556 ar    
      853       556       635 ar    
      854       556       557 ar    
      855       557       558 ar    
      856       557       560 ar    
      857       481       482 ar    
      858       481       560 ar    
      859       560       639 ar    
      860       481       484 ar    
      861       563       566 ar    
      862       567       570 ar    
      863       571       574 ar    
      864       575       578 ar    
      865       579       582 ar    
      866       583       586 ar    
      867       587       590 ar    
      868       591       594 ar    
      869       595       598 ar    
      870       599       602 ar    
      871       603       606 ar    
      872       607       610 ar    
      873       611       614 ar    
      874       615       618 ar    
      875       619       622 ar    
      876       623       626 ar    
      877       627       630 ar    
      878       631       634 ar    
      879       635       638 ar    
      880       565       566 ar    
      881       566       567 ar    
      882       565       568 ar    
      883       569       570 ar    
      884       570       571 ar    
      885       569       572 ar    
      886       574       575 ar    
      887       573       574 ar    
      888       573       576 ar    
      889       577       578 ar    
      890       578       579 ar    
      891       577       580 ar    
      892       581       582 ar    
      893       582       583 ar    
      894       581       584 ar    
      895       586       587 ar    
      896       585       586 ar    
      897       585       588 ar    
      898       589       590 ar    
      899       590       591 ar    
      900       589       592 ar    
      901       593       594 ar    
      902       594       595 ar    
      903       593       596 ar    
      904       598       599 ar    
      905       597       598 ar    
      906       597       600 ar    
      907       601       602 ar    
      908       602       603 ar    
      909       601       604 ar    
      910       605       606 ar    
      911       606       607 ar    
      912       605       608 ar    
      913       610       611 ar    
      914       609       610 ar    
      915       609       612 ar    
      916       613       614 ar    
      917       614       615 ar    
      918       613       616 ar    
      919       617       618 ar    
      920       618       619 ar    
      921       617       620 ar    
      922       622       623 ar    
      923       621       622 ar    
      924       621       624 ar    
      925       625       626 ar    
      926       626       627 ar    
      927       625       628 ar    
      928       629       630 ar    
      929       630       631 ar    
      930       629       632 ar    
      931       634       635 ar    
      932       633       634 ar    
      933       633       636 ar    
      934       637       638 ar    
      935       638       639 ar    
      936       637       640 ar    
      937       562       639 ar    
      938       561       562 ar    
      939       561       640 ar    
      940       562       563 ar    
      941       561       564 ar    
      942       564       643 ar    
      943       564       565 ar    
      944       568       569 ar    
      945       568       647 ar    
      946       572       651 ar    
      947       572       573 ar    
      948       576       655 ar    
      949       576       577 ar    
      950       580       581 ar    
      951       580       659 ar    
      952       584       663 ar    
      953       584       585 ar    
      954       588       667 ar    
      955       588       589 ar    
      956       592       593 ar    
      957       592       671 ar    
      958       596       675 ar    
      959       596       597 ar    
      960       600       679 ar    
      961       600       601 ar    
      962       604       605 ar    
      963       604       683 ar    
      964       608       687 ar    
      965       608       609 ar    
      966       612       691 ar    
      967       612       613 ar    
      968       616       617 ar    
      969       616       695 ar    
      970       620       699 ar    
      971       620       621 ar    
      972       624       703 ar    
      973       624       625 ar    
      974       628       629 ar    
      975       628       707 ar    
      976       632       711 ar    
      977       632       633 ar    
      978       636       715 ar    
      979       636       637 ar    
      980       640       719 ar    
      981       643       646 ar    
      982       646       647 ar    
      983       647       650 ar    
      984       650       651 ar    
      985       651       654 ar    
      986       654       655 ar    
      987       655       658 ar    
      988       658       659 ar    
      989       659       662 ar    
      990       662       663 ar    
      991       663       666 ar    
      992       666       667 ar    
      993       667       670 ar    
      994       670       671 ar    
      995       671       674 ar    
      996       674       675 ar    
      997       675       678 ar    
      998       678       679 ar    
      999       679       682 ar    
     1000       682       683 ar    
     1001       683       686 ar    
     1002       686       687 ar    
     1003       687       690 ar    
     1004       690       691 ar    
     1005       691       694 ar    
     1006       694       695 ar    
     1007       695       698 ar    
     1008       698       699 ar    
     1009       699       702 ar    
     1010       702       703 ar    
     1011       703       706 ar    
     1012       706       707 ar    
     1013       707       710 ar    
     1014       710       711 ar    
     1015       711       714 ar    
     1016       714       715 ar    
     1017       715       718 ar    
     1018       718       719 ar    
     1019       642       719 ar    
     1020       642       643 ar    
     1021       644       723 ar    
     1022       644       645 ar    
     1023       645       646 ar    
     1024       645       648 ar    
     1025       649       650 ar    
     1026       648       649 ar    
     1027       648       727 ar    
     1028       649       652 ar    
     1029       652       731 ar    
     1030       652       653 ar    
     1031       653       654 ar    
     1032       653       656 ar    
     1033       656       735 ar    
     1034       656       657 ar    
     1035       657       658 ar    
     1036       657       660 ar    
     1037       661       662 ar    
     1038       660       661 ar    
     1039       660       739 ar    
     1040       661       664 ar    
     1041       664       743 ar    
     1042       664       665 ar    
     1043       665       666 ar    
     1044       665       668 ar    
     1045       668       747 ar    
     1046       668       669 ar    
     1047       669       670 ar    
     1048       669       672 ar    
     1049       673       674 ar    
     1050       672       673 ar    
     1051       672       751 ar    
     1052       673       676 ar    
     1053       676       755 ar    
     1054       676       677 ar    
     1055       677       678 ar    
     1056       677       680 ar    
     1057       680       759 ar    
     1058       680       681 ar    
     1059       681       682 ar    
     1060       681       684 ar    
     1061       685       686 ar    
     1062       684       685 ar    
     1063       684       763 ar    
     1064       685       688 ar    
     1065       688       767 ar    
     1066       688       689 ar    
     1067       689       690 ar    
     1068       689       692 ar    
     1069       692       771 ar    
     1070       692       693 ar    
     1071       693       694 ar    
     1072       693       696 ar    
     1073       697       698 ar    
     1074       696       697 ar    
     1075       696       775 ar    
     1076       697       700 ar    
     1077       700       779 ar    
     1078       700       701 ar    
     1079       701       702 ar    
     1080       701       704 ar    
     1081       704       783 ar    
     1082       704       705 ar    
     1083       705       706 ar    
     1084       705       708 ar    
     1085       709       710 ar    
     1086       708       709 ar    
     1087       708       787 ar    
     1088       709       712 ar    
     1089       712       791 ar    
     1090       712       713 ar    
     1091       713       714 ar    
     1092       713       716 ar    
     1093       716       795 ar    
     1094       716       717 ar    
     1095       717       718 ar    
     1096       717       720 ar    
     1097       641       642 ar    
     1098       641       720 ar    
     1099       720       799 ar    
     1100       641       644 ar    
     1101       723       726 ar    
     1102       726       727 ar    
     1103       727       730 ar    
     1104       730       731 ar    
     1105       731       734 ar    
     1106       734       735 ar    
     1107       735       738 ar    
     1108       738       739 ar    
     1109       739       742 ar    
     1110       742       743 ar    
     1111       743       746 ar    
     1112       746       747 ar    
     1113       747       750 ar    
     1114       750       751 ar    
     1115       751       754 ar    
     1116       754       755 ar    
     1117       755       758 ar    
     1118       758       759 ar    
     1119       759       762 ar    
     1120       762       763 ar    
     1121       763       766 ar    
     1122       766       767 ar    
     1123       767       770 ar    
     1124       770       771 ar    
     1125       771       774 ar    
     1126       774       775 ar    
     1127       775       778 ar    
     1128       778       779 ar    
     1129       779       782 ar    
     1130       782       783 ar    
     1131       783       786 ar    
     1132       786       787 ar    
     1133       787       790 ar    
     1134       790       791 ar    
     1135       791       794 ar    
     1136       794       795 ar    
     1137       795       798 ar    
     1138       798       799 ar    
     1139       722       799 ar    
     1140       722       723 ar    
     1141       724       803 ar    
     1142       724       725 ar    
     1143       725       726 ar    
     1144       725       728 ar    
     1145       729       730 ar    
     1146       728       729 ar    
     1147       728       807 ar    
     1148       729       732 ar    
     1149       732       811 ar    
     1150       732       733 ar    
     1151       733       734 ar    
     1152       733       736 ar    
     1153       736       815 ar    
     1154       736       737 ar    
     1155       737       738 ar    
     1156       737       740 ar    
     1157       741       742 ar    
     1158       740       741 ar    
     1159       740       819 ar    
     1160       741       744 ar    
     1161       744       823 ar    
     1162       744       745 ar    
     1163       745       746 ar    
     1164       745       748 ar    
     1165       748       827 ar    
     1166       748       749 ar    
     1167       749       750 ar    
     1168       749       752 ar    
     1169       753       754 ar    
     1170       752       753 ar    
     1171       752       831 ar    
     1172       753       756 ar    
     1173       756       835 ar    
     1174       756       757 ar    
     1175       757       758 ar    
     1176       757       760 ar    
     1177       760       839 ar    
     1178       760       761 ar    
     1179       761       762 ar    
     1180       761       764 ar    
     1181       765       766 ar    
     1182       764       765 ar    
     1183       764       843 ar    
     1184       765       768 ar    
     1185       768       847 ar    
     1186       768       769 ar    
     1187       769       770 ar    
     1188       769       772 ar    
     1189       772       851 ar    
     1190       772       773 ar    
     1191       773       774 ar    
     1192       773       776 ar    
     1193       777       778 ar    
     1194       776       777 ar    
     1195       776       855 ar    
     1196       777       780 ar    
     1197       780       859 ar    
     1198       780       781 ar    
     1199       781       782 ar    
     1200       781       784 ar    
     1201       784       863 ar    
     1202       784       785 ar    
     1203       785       786 ar    
     1204       785       788 ar    
     1205       789       790 ar    
     1206       788       789 ar    
     1207       788       867 ar    
     1208       789       792 ar    
     1209       792       871 ar    
     1210       792       793 ar    
     1211       793       794 ar    
     1212       793       796 ar    
     1213       796       875 ar    
     1214       796       797 ar    
     1215       797       798 ar    
     1216       797       800 ar    
     1217       721       722 ar    
     1218       721       800 ar    
     1219       800       879 ar    
     1220       721       724 ar    
     1221       803       806 ar    
     1222       807       810 ar    
     1223       811       814 ar    
     1224       815       818 ar    
     1225       819       822 ar    
     1226       823       826 ar    
     1227       827       830 ar    
     1228       831       834 ar    
     1229       835       838 ar    
     1230       839       842 ar    
     1231       843       846 ar    
     1232       847       850 ar    
     1233       851       854 ar    
     1234       855       858 ar    
     1235       859       862 ar    
     1236       863       866 ar    
     1237       867       870 ar    
     1238       871       874 ar    
     1239       875       878 ar    
     1240       805       806 ar    
     1241       806       807 ar    
     1242       805       808 ar    
     1243       809       810 ar    
     1244       810       811 ar    
     1245       809       812 ar    
     1246       814       815 ar    
     1247       813       814 ar    
     1248       813       816 ar    
     1249       817       818 ar    
     1250       818       819 ar    
     1251       817       820 ar    
     1252       821       822 ar    
     1253       822       823 ar    
     1254       821       824 ar    
     1255       826       827 ar    
     1256       825       826 ar    
     1257       825       828 ar    
     1258       829       830 ar    
     1259       830       831 ar    
     1260       829       832 ar    
     1261       833       834 ar    
     1262       834       835 ar    
     1263       833       836 ar    
     1264       838       839 ar    
     1265       837       838 ar    
     1266       837       840 ar    
     1267       841       842 ar    
     1268       842       843 ar    
     1269       841       844 ar    
     1270       845       846 ar    
     1271       846       847 ar    
     1272       845       848 ar    
     1273       850       851 ar    
     1274       849       850 ar    
     1275       849       852 ar    
     1276       853       854 ar    
     1277       854       855 ar    
     1278       853       856 ar    
     1279       857       858 ar    
     1280       858       859 ar    
     1281       857       860 ar    
     1282       862       863 ar    
     1283       861       862 ar    
     1284       861       864 ar    
     1285       865       866 ar    
     1286       866       867 ar    
     1287       865       868 ar    
     1288       869       870 ar    
     1289       870       871 ar    
     1290       869       872 ar    
     1291       874       875 ar    
     1292       873       874 ar    
     1293       873       876 ar    
     1294       877       878 ar    
     1295       878       879 ar    
     1296       877       880 ar    
     1297       802       879 ar    
     1298       801       802 ar    
     1299       801       880 ar    
     1300       802       803 ar    
     1301       801       804 ar    
     1302       804       883 ar    
     1303       804       805 ar    
     1304       808       809 ar    
     1305       808       887 ar    
     1306       812       891 ar    
     1307       812       813 ar    
     1308       816       895 ar    
     1309       816       817 ar    
     1310       820       821 ar    
     1311       820       899 ar    
     1312       824       903 ar    
     1313       824       825 ar    
     1314       828       907 ar    
     1315       828       829 ar    
     1316       832       833 ar    
     1317       832       911 ar    
     1318       836       915 ar    
     1319       836       837 ar    
     1320       840       919 ar    
     1321       840       841 ar    
     1322       844       845 ar    
     1323       844       923 ar    
     1324       848       927 ar    
     1325       848       849 ar    
     1326       852       931 ar    
     1327       852       853 ar    
     1328       856       857 ar    
     1329       856       935 ar    
     1330       860       939 ar    
     1331       860       861 ar    
     1332       864       943 ar    
     1333       864       865 ar    
     1334       868       869 ar    
     1335       868       947 ar    
     1336       872       951 ar    
     1337       872       873 ar    
     1338       876       955 ar    
     1339       876       877 ar    
     1340       880       959 ar    
     1341       883       886 ar    
     1342       886       887 ar    
     1343       887       890 ar    
     1344       890       891 ar    
     1345       891       894 ar    
     1346       894       895 ar    
     1347       895       898 ar    
     1348       898       899 ar    
     1349       899       902 ar    
     1350       902       903 ar    
     1351       903       906 ar    
     1352       906       907 ar    
     1353       907       910 ar    
     1354       910       911 ar    
     1355       911       914 ar    
     1356       914       915 ar    
     1357       915       918 ar    
     1358       918       919 ar    
     1359       919       922 ar    
     1360       922       923 ar    
     1361       923       926 ar    
     1362       926       927 ar    
     1363       927       930 ar    
     1364       930       931 ar    
     1365       931       934 ar    
     1366       934       935 ar    
     1367       935       938 ar    
     1368       938       939 ar    
     1369       939       942 ar    
     1370       942       943 ar    
     1371       943       946 ar    
     1372       946       947 ar    
     1373       947       950 ar    
     1374       950       951 ar    
     1375       951       954 ar    
     1376       954       955 ar    
     1377       955       958 ar    
     1378       958       959 ar    
     1379       882       959 ar    
     1380       882       883 ar    
     1381       884       885 ar    
     1382       885       886 ar    
     1383       885       888 ar    
     1384       889       890 ar    
     1385       888       889 ar    
     1386       889       892 ar    
     1387       892       893 ar    
     1388       893       894 ar    
     1389       893       896 ar    
     1390       896       897 ar    
     1391       897       898 ar    
     1392       897       900 ar    
     1393       901       902 ar    
     1394       900       901 ar    
     1395       901       904 ar    
     1396       904       905 ar    
     1397       905       906 ar    
     1398       905       908 ar    
     1399       908       909 ar    
     1400       909       910 ar    
     1401       909       912 ar    
     1402       913       914 ar    
     1403       912       913 ar    
     1404       913       916 ar    
     1405       916       917 ar    
     1406       917       918 ar    
     1407       917       920 ar    
     1408       920       921 ar    
     1409       921       922 ar    
     1410       921       924 ar    
     1411       925       926 ar    
     1412       924       925 ar    
     1413       925       928 ar    
     1414       928       929 ar    
     1415       929       930 ar    
     1416       929       932 ar    
     1417       932       933 ar    
     1418       933       934 ar    
     1419       933       936 ar    
     1420       937       938 ar    
     1421       936       937 ar    
     1422       937       940 ar    
     1423       940       941 ar    
     1424       941       942 ar    
     1425       941       944 ar    
     1426       944       945 ar    
     1427       945       946 ar    
     1428       945       948 ar    
     1429       949       950 ar    
     1430       948       949 ar    
     1431       949       952 ar    
     1432       952       953 ar    
     1433       953       954 ar    
     1434       953       956 ar    
     1435       956       957 ar    
     1436       957       958 ar    
     1437       957       960 ar    
     1438       881       882 ar    
     1439       881       960 ar    
     1440       881       884 ar    
     1441       961       962 1     
     1442       961       963 1     
     1443       964       965 1     
     1444       964       966 1     
     1445       967       968 1     
     1446       967       969 1     
     1447       970       971 1     
     1448       970       972 1     
     1449       973       974 1     
     1450       973       975 1     
     1451       976       977 1     
     1452       976       978 1     
     1453       979       980 1     
     1454       979       981 1     
     1455       982       983 1     
     1456       982       984 1     
     1457       985       986 1     
     1458       985       987 1     
     1459       988       989 1     
     1460       988       990 1     
     1461       991       992 1     
     1462       991       993 1     
     1463       994       995 1     
     1464       994       996 1     
     1465       997       998 1     
     1466       997       999 1     
     1467      1000      1001 1     
     1468      1000      1002 1     
     1469      1003      1004 1     
     1470      1003      1005 1     
     1471      1006      1007 1     
     1472      1006      1008 1     
     1473      1009      1010 1     
     1474      1009      1011 1     
     1475      1012      1013 1     
     1476      1012      1014 1     
     1477      1015      1016 1     
     1478      1015      1017 1     
     1479      1018      1019 1     
     1480      1018      1020 1     
     1481      1021      1022 1     
     1482      1021      1023 1     
     1483      1024      1025 1     
     1484      1024      1026 1     
     1485      1027      1028 1     
     1486      1027      1029 1     
     1487      1030      1031 1     
     1488      1030      1032 1     
     1489      1033      1034 1     
     1490      1033      1035 1     
     1491      1036      1037 1     
     1492      1036      1038 1     
     1493      1039      1040 1     
     1494      1039      1041 1     
     1495      1042      1043 1     
     1496      1042      1044 1     
     1497      1045      1046 1     
     1498      1045      1047 1     
     1499      1048      1049 1     
     1500      1048      1050 1     
     1501      1051      1052 1     
     1502      1051      1053 1     
     1503      1054      1055 1     
     1504      1054      1056 1     
     1505      1057      1058 1     
     1506      1057      1059 1     
     1507      1060      1061 1     
     1508      1060      1062 1     
     1509      1063      1064 1     
     1510      1063      1065 1     
     1511      1066      1067 1     
     1512      1066      1068 1     
     1513      1069      1070 1     
     1514      1069      1071 1     
     1515      1072      1073 1     
     1516      1072      1074 1     
     1517      1075      1076 1     
     1518      1075      1077 1     
     1519      1078      1079 1     
     1520      1078      1080 1     
     1521      1081      1082 1     
     1522      1081      1083 1     
     1523      1084      1085 1     
     1524      1084      1086 1     
     1525      1087      1088 1     
     1526      1087      1089 1     
     1527      1090      1091 1     
     1528      1090      1092 1     
     1529      1093      1094 1     
     1530      1093      1095 1     
     1531      1096      1097 1     
     1532      1096      1098 1     
     1533      1099      1100 1     
     1534      1099      1101 1     
     1535      1102      1103 1     
     1536      1102      1104 1     
     1537      1105      1106 1     
     1538      1105      1107 1     
     1539      1108      1109 1     
     1540      1108      1110 1     
     1541      1111      1112 1     
     1542      1111      1113 1     
     1543      1114      1115 1     
     1544      1114      1116 1     
     1545      1117      1118 1     
     1546      1117      1119 1     
     1547      1120      1121 1     
     1548      1120      1122 1     
     1549      1123      1124 1     
     1550      1123      1125 1     
     1551      1126      1127 1     
     1552      1126      1128 1     
     1553      1129      1130 1     
     1554      1129      1131 1     
     1555      1132      1133 1     
     1556      1132      1134 1     
     1557      1135      1136 1     
     1558      1135      1137 1     
     1559      1138      1139 1     
     1560      1138      1140 1     
     1561      1141      1142 1     
     1562      1141      1143 1     
     1563      1144      1145 1     
     1564      1144      1146 1     
     1565      1147      1148 1     
     1566      1147      1149 1     
     1567      1150      1151 1     
     1568      1150      1152 1     
     1569      1153      1154 1     
     1570      1153      1155 1     
     1571      1156      1157 1     
     1572      1156      1158 1     
     1573      1159      1160 1     
     1574      1159      1161 1     
     1575      1162      1163 1     
     1576      1162      1164 1     
     1577      1165      1166 1     
     1578      1165      1167 1     
     1579      1168      1169 1     
     1580      1168      1170 1     
     1581      1171      1172 1     
     1582      1171      1173 1     
     1583      1174      1175 1     
     1584      1174      1176 1     
     1585      1177      1178 1     
     1586      1177      1179 1     
     1587      1180      1181 1     
     1588      1180      1182 1     
     1589      1183      1184 1     
     1590      1183      1185 1     
     1591      1186      1187 1     
     1592      1186      1188 1     
     1593      1189      1190 1     
     1594      1189      1191 1     
     1595      1192      1193 1     
     1596      1192      1194 1     
     1597      1195      1196 1     
     1598      1195      1197 1     
     1599      1198      1199 1     
     1600      1198      1200 1     
     1601      1201      1202 1     
     1602      1201      1203 1     
     1603      1204      1205 1     
     1604      1204      1206 1     
     1605      1207      1208 1     
     1606      1207      1209 1     
     1607      1210      1211 1     
     1608      1210      1212 1     
     1609      1213      1214 1     
     1610      1213      1215 1     
     1611      1216      1217 1     
     1612      1216      1218 1     
     1613      1219      1220 1     
     1614      1219      1221 1     
     1615      1222      1223 1     
     1616      1222      1224 1     
     1617      1225      1226 1     
     1618      1225      1227 1     
     1619      1228      1229 1     
     1620      1228      1230 1     
     1621      1231      1232 1     
     1622      1231      1233 1     
     1623      1234      1235 1     
     1624      1234      1236 1     
     1625      1237      1238 1     
     1626      1237      1239 1     
     1627      1240      1241 1     
     1628      1240      1242 1     
     1629      1243      1244 1     
     1630      1243      1245 1     
     1631      1246      1247 1     
     1632      1246      1248 1     
     1633      1249      1250 1     
     1634      1249      1251 1     
     1635      1252      1253 1     
     1636      1252      1254 1     
     1637      1255      1256 1     
     1638      1255      1257 1     
     1639      1258      1259 1     
     1640      1258      1260 1     
     1641      1261      1262 1     
     1642      1261      1263 1     
     1643      1264      1265 1     
     1644      1264      1266 1     
     1645      1267      1268 1     
     1646      1267      1269 1     
     1647      1270      1271 1     
     1648      1270      1272 1     
     1649      1273      1274 1     
     1650      1273      1275 1     
     1651      1276      1277 1     
     1652      1276      1278 1     
     1653      1279      1280 1     
     1654      1279      1281 1     
     1655      1282      1283 1     
     1656      1282      1284 1     
     1657      1285      1286 1     
     1658      1285      1287 1     
     1659      1288      1289 1     
     1660      1288      1290 1     
     1661      1291      1292 1     
     1662      1291      1293 1     
     1663      1294      1295 1     
     1664      1294      1296 1     
     1665      1297      1298 1     
     1666      1297      1299 1     
     1667      1300      1301 1     
     1668      1300      1302 1     
     1669      1303      1304 1     
     1670      1303      1305 1     
     1671      1306      1307 1     
     1672      1306      1308 1     
     1673      1309      1310 1     
     1674      1309      1311 1     
     1675      1312      1313 1     
     1676      1312      1314 1     
     1677      1315      1316 1     
     1678      1315      1317 1     
     1679      1318      1319 1     
     1680      1318      1320 1     
     1681      1321      1322 1     
     1682      1321      1323 1     
     1683      1324      1325 1     
     1684      1324      1326 1     
     1685      1327      1328 1     
     1686      1327      1329 1     
     1687      1330      1331 1     
     1688      1330      1332 1     
     1689      1333      1334 1     
     1690      1333      1335 1     
     1691      1336      1337 1     
     1692      1336      1338 1     
     1693      1339      1340 1     
     1694      1339      1341 1     
     1695      1342      1343 1     
     1696      1342      1344 1     
     1697      1345      1346 1     
     1698      1345      1347 1     
     1699      1348      1349 1     
     1700      1348      1350 1     
     1701      1351      1352 1     
     1702      1351      1353 1     
     1703      1354      1355 1     
     1704      1354      1356 1     
     1705      1357      1358 1     
     1706      1357      1359 1     
     1707      1360      1361 1     
     1708      1360      1362 1     
     1709      1363      1364 1     
     1710      1363      1365 1     
     1711      1366      1367 1     
     1712      1366      1368 1     
     1713      1369      1370 1     
     1714      1369      1371 1     
     1715      1372      1373 1     
     1716      1372      1374 1     
     1717      1375      1376 1     
     1718      1375      1377 1     
     1719      1378      1379 1     
     1720      1378      1380 1     
     1721      1381      1382 1     
     1722      1381      1383 1     
     1723      1384      1385 1     
     1724      1384      1386 1     
     1725      1387      1388 1     
     1726      1387      1389 1     
     1727      1390      1391 1     
     1728      1390      1392 1     
     1729      1393      1394 1     
     1730      1393      1395 1     
     1731      1396      1397 1     
     1732      1396      1398 1     
     1733      1399      1400 1     
     1734      1399      1401 1     
     1735      1402      1403 1     
     1736      1402      1404 1     
     1737      1405      1406 1     
     1738      1405      1407 1     
     1739      1408      1409 1     
     1740      1408      1410 1     
     1741      1411      1412 1     
     1742      1411      1413 1     
     1743      1414      1415 1     
     1744      1414      1416 1     
     1745      1417      1418 1     
     1746      1417      1419 1     
     1747      1420      1421 1     
     1748      1420      1422 1     
     1749      1423      1424 1     
     1750      1423      1425 1     
     1751      1426      1427 1     
     1752      1426      1428 1     
     1753      1429      1430 1     
     1754      1429      1431 1     
     1755      1432      1433 1     
     1756      1432      1434 1     
     1757      1435      1436 1     
     1758      1435      1437 1     
     1759      1438      1439 1     
     1760      1438      1440 1     
     1761      1441      1442 1     
     1762      1441      1443 1     
     1763      1444      1445 1     
     1764      1444      1446 1     
     1765      1447      1448 1     
     1766      1447      1449 1     
     1767      1450      1451 1     
     1768      1450      1452 1     
     1769      1453      1454 1     
     1770      1453      1455 1     
     1771      1456      1457 1     
     1772      1456      1458 1     
     1773      1459      1460 1     
     1774      1459      1461 1     
     1775      1462      1463 1     
     1776      1462      1464 1     
     1777      1465      1466 1     
     1778      1465      1467 1     
     1779      1468      1469 1     
     1780      1468      1470 1     
     1781      1471      1472 1     
     1782      1471      1473 1     
     1783      1474      1475 1     
     1784      1474      1476 1     
     1785      1477      1478 1     
     1786      1477      1479 1     
     1787      1480      1481 1     
     1788      1480      1482 1     
     1789      1483      1484 1     
     1790      1483      1485 1     
     1791      1486      1487 1     
     1792      1486      1488 1     
     1793      1489      1490 1     
     1794      1489      1491 1     
     1795      1492      1493 1     
     1796      1492      1494 1     
     1797      1495      1496 1     
     1798      1495      1497 1     
     1799      1498      1499 1     
     1800      1498      1500 1     
     1801      1501      1502 1     
     1802      1501      1503 1     
     1803      1504      1505 1     
     1804      1504      1506 1     
     1805      1507      1508 1     
     1806      1507      1509 1     
     1807      1510      1511 1     
     1808      1510      1512 1     
     1809      1513      1514 1     
     1810      1513      1515 1     
     1811      1516      1517 1     
     1812      1516      1518 1     
     1813      1519      1520 1     
     1814      1519      1521 1     
     1815      1522      1523 1     
     1816      1522      1524 1     
     1817      1525      1526 1     
     1818      1525      1527 1     
     1819      1528      1529 1     
     1820      1528      1530 1     
     1821      1531      1532 1     
     1822      1531      1533 1     
     1823      1534      1535 1     
     1824      1534      1536 1     
     1825      1537      1538 1     
     1826      1537      1539 1     
     1827      1540      1541 1     
     1828      1540      1542 1     
     1829      1543      1544 1     
     1830      1543      1545 1     
     1831      1546      1547 1     
     1832      1546      1548 1     
     1833      1549      1550 1     
     1834      1549      1551 1     
     1835      1552      1553 1     
     1836      1552      1554 1     
     1837      1555      1556 1     
     1838      1555      1557 1     
     1839      1558      1559 1     
     1840      1558      1560 1     
     1841      1561      1562 1     
     1842      1561      1563 1     
     1843      1564      1565 1     
     1844      1564      1566 1     
     1845      1567      1568 1     
     1846      1567      1569 1     
     1847      1570      1571 1     
     1848      1570      1572 1     
     1849      1573      1574 1     
     1850      1573      1575 1     
     1851      1576      1577 1     
     1852      1576      1578 1     
     1853      1579      1580 1     
     1854      1579      1581 1     
     1855      1582      1583 1     
     1856      1582      1584 1     
     1857      1585      1586 1     
     1858      1585      1587 1     
     1859      1588      1589 1     
     1860      1588      1590 1     
     1861      1591      1592 1     
     1862      1591      1593 1     
     1863      1594      1595 1     
     1864      1594      1596 1     
     1865      1597      1598 1     
     1866      1597      1599 1     
     1867      1600      1601 1     
     1868      1600      1602 1     
     1869      1603      1604 1     
     1870      1603      1605 1     
     1871      1606      1607 1     
     1872      1606      1608 1     
     1873      1609      1610 1     
     1874      1609      1611 1     
     1875      1612      1613 1     
     1876      1612      1614 1     
     1877      1615      1616 1     
     1878      1615      1617 1     
     1879      1618      1619 1     
     1880      1618      1620 1     
     1881      1621      1622 1     
     1882      1621      1623 1     
     1883      1624      1625 1     
     1884      1624      1626 1     
     1885      1627      1628 1     
     1886      1627      1629 1     
     1887      1630      1631 1     
     1888      1630      1632 1     
     1889      1633      1634 1     
     1890      1633      1635 1     
     1891      1636      1637 1     
     1892      1636      1638 1     
     1893      1639      1640 1     
     1894      1639      1641 1     
     1895      1642      1643 1     
     1896      1642      1644 1     
     1897      1645      1646 1     
     1898      1645      1647 1     
     1899      1648      1649 1     
     1900      1648      1650 1     
     1901      1651      1652 1     
     1902      1651      1653 1     
     1903      1654      1655 1     
     1904      1654      1656 1     
     1905      1657      1658 1     
     1906      1657      1659 1     
     1907      1660      1661 1     
     1908      1660      1662 1     
     1909      1663      1664 1     
     1910      1663      1665 1     
     1911      1666      1667 1     
     1912      1666      1668 1     
     1913      1669      1670 1     
     1914      1669      1671 1     
     1915      1672      1673 1     
     1916      1672      1674 1     
     1917      1675      1676 1     
     1918      1675      1677 1     
     1919      1678      1679 1     
     1920      1678      1680 1     
     1921      1681      1682 1     
     1922      1681      1683 1     
     1923      1684      1685 1     
     1924      1684      1686 1     
     1925      1687      1688 1     
     1926      1687      1689 1     
     1927      1690      1691 1     
     1928      1690      1692 1     
     1929      1693      1694 1     
     1930      1693      1695 1     
     1931      1696      1697 1     
     1932      1696      1698 1     
     1933      1699      1700 1     
     1934      1699      1701 1     
     1935      1702      1703 1     
     1936      1702      1704 1     
     1937      1705      1706 1     
     1938      1705      1707 1     
     1939      1708      1709 1     
     1940      1708      1710 1     
     1941      1714      1715 ar    
     1942      1715      2596 ar    
     1943      1715      1718 ar    
     1944      1719      2600 ar    
     1945      1718      1719 ar    
     1946      1719      1722 ar    
     1947      1722      1723 ar    
     1948      1723      2604 ar    
     1949      1723      1726 ar    
     1950      1726      1727 ar    
     1951      1727      2608 ar    
     1952      1727      1730 ar    
     1953      1731      2612 ar    
     1954      1730      1731 ar    
     1955      1731      1734 ar    
     1956      1734      1735 ar    
     1957      1735      2616 ar    
     1958      1735      1738 ar    
     1959      1738      1739 ar    
     1960      1739      2620 ar    
     1961      1739      1742 ar    
     1962      1743      2624 ar    
     1963      1742      1743 ar    
     1964      1743      1746 ar    
     1965      1746      1747 ar    
     1966      1747      2628 ar    
     1967      1747      1750 ar    
     1968      1750      1751 ar    
     1969      1751      2632 ar    
     1970      1751      1754 ar    
     1971      1755      2636 ar    
     1972      1754      1755 ar    
     1973      1755      1758 ar    
     1974      1758      1759 ar    
     1975      1759      2640 ar    
     1976      1759      1762 ar    
     1977      1762      1763 ar    
     1978      1763      2644 ar    
     1979      1763      1766 ar    
     1980      1767      2648 ar    
     1981      1766      1767 ar    
     1982      1767      1770 ar    
     1983      1770      1771 ar    
     1984      1771      2652 ar    
     1985      1771      1774 ar    
     1986      1774      1775 ar    
     1987      1775      2656 ar    
     1988      1775      1778 ar    
     1989      1779      2660 ar    
     1990      1778      1779 ar    
     1991      1779      1782 ar    
     1992      1782      1783 ar    
     1993      1783      2664 ar    
     1994      1783      1786 ar    
     1995      1786      1787 ar    
     1996      1787      2668 ar    
     1997      1787      1790 ar    
     1998      1711      2592 ar    
     1999      1711      1790 ar    
     2000      1711      1714 ar    
     2001      1713      1714 ar    
     2002      1713      1716 ar    
     2003      1716      1795 ar    
     2004      1716      1717 ar    
     2005      1717      1718 ar    
     2006      1717      1720 ar    
     2007      1720      1799 ar    
     2008      1720      1721 ar    
     2009      1721      1722 ar    
     2010      1721      1724 ar    
     2011      1725      1726 ar    
     2012      1724      1725 ar    
     2013      1724      1803 ar    
     2014      1725      1728 ar    
     2015      1728      1807 ar    
     2016      1728      1729 ar    
     2017      1729      1730 ar    
     2018      1729      1732 ar    
     2019      1732      1811 ar    
     2020      1732      1733 ar    
     2021      1733      1734 ar    
     2022      1733      1736 ar    
     2023      1737      1738 ar    
     2024      1736      1737 ar    
     2025      1736      1815 ar    
     2026      1737      1740 ar    
     2027      1740      1819 ar    
     2028      1740      1741 ar    
     2029      1741      1742 ar    
     2030      1741      1744 ar    
     2031      1744      1823 ar    
     2032      1744      1745 ar    
     2033      1745      1746 ar    
     2034      1745      1748 ar    
     2035      1749      1750 ar    
     2036      1748      1749 ar    
     2037      1748      1827 ar    
     2038      1749      1752 ar    
     2039      1752      1831 ar    
     2040      1752      1753 ar    
     2041      1753      1754 ar    
     2042      1753      1756 ar    
     2043      1756      1835 ar    
     2044      1756      1757 ar    
     2045      1757      1758 ar    
     2046      1757      1760 ar    
     2047      1761      1762 ar    
     2048      1760      1761 ar    
     2049      1760      1839 ar    
     2050      1761      1764 ar    
     2051      1764      1843 ar    
     2052      1764      1765 ar    
     2053      1765      1766 ar    
     2054      1765      1768 ar    
     2055      1768      1847 ar    
     2056      1768      1769 ar    
     2057      1769      1770 ar    
     2058      1769      1772 ar    
     2059      1773      1774 ar    
     2060      1772      1773 ar    
     2061      1772      1851 ar    
     2062      1773      1776 ar    
     2063      1776      1855 ar    
     2064      1776      1777 ar    
     2065      1777      1778 ar    
     2066      1777      1780 ar    
     2067      1780      1859 ar    
     2068      1780      1781 ar    
     2069      1781      1782 ar    
     2070      1781      1784 ar    
     2071      1785      1786 ar    
     2072      1784      1785 ar    
     2073      1784      1863 ar    
     2074      1785      1788 ar    
     2075      1788      1867 ar    
     2076      1788      1789 ar    
     2077      1789      1790 ar    
     2078      1712      1789 ar    
     2079      1712      1791 ar    
     2080      1712      1713 ar    
     2081      1795      1798 ar    
     2082      1799      1802 ar    
     2083      1803      1806 ar    
     2084      1807      1810 ar    
     2085      1811      1814 ar    
     2086      1815      1818 ar    
     2087      1819      1822 ar    
     2088      1823      1826 ar    
     2089      1827      1830 ar    
     2090      1831      1834 ar    
     2091      1835      1838 ar    
     2092      1839      1842 ar    
     2093      1843      1846 ar    
     2094      1847      1850 ar    
     2095      1851      1854 ar    
     2096      1855      1858 ar    
     2097      1859      1862 ar    
     2098      1863      1866 ar    
     2099      1867      1870 ar    
     2100      1791      1870 ar    
     2101      1791      1794 ar    
     2102      1793      1794 ar    
     2103      1794      1795 ar    
     2104      1793      1796 ar    
     2105      1798      1799 ar    
     2106      1797      1798 ar    
     2107      1797      1800 ar    
     2108      1801      1802 ar    
     2109      1802      1803 ar    
     2110      1801      1804 ar    
     2111      1805      1806 ar    
     2112      1806      1807 ar    
     2113      1805      1808 ar    
     2114      1810      1811 ar    
     2115      1809      1810 ar    
     2116      1809      1812 ar    
     2117      1813      1814 ar    
     2118      1814      1815 ar    
     2119      1813      1816 ar    
     2120      1817      1818 ar    
     2121      1818      1819 ar    
     2122      1817      1820 ar    
     2123      1822      1823 ar    
     2124      1821      1822 ar    
     2125      1821      1824 ar    
     2126      1825      1826 ar    
     2127      1826      1827 ar    
     2128      1825      1828 ar    
     2129      1829      1830 ar    
     2130      1830      1831 ar    
     2131      1829      1832 ar    
     2132      1834      1835 ar    
     2133      1833      1834 ar    
     2134      1833      1836 ar    
     2135      1837      1838 ar    
     2136      1838      1839 ar    
     2137      1837      1840 ar    
     2138      1841      1842 ar    
     2139      1842      1843 ar    
     2140      1841      1844 ar    
     2141      1846      1847 ar    
     2142      1845      1846 ar    
     2143      1845      1848 ar    
     2144      1849      1850 ar    
     2145      1850      1851 ar    
     2146      1849      1852 ar    
     2147      1853      1854 ar    
     2148      1854      1855 ar    
     2149      1853      1856 ar    
     2150      1858      1859 ar    
     2151      1857      1858 ar    
     2152      1857      1860 ar    
     2153      1861      1862 ar    
     2154      1862      1863 ar    
     2155      1861      1864 ar    
     2156      1865      1866 ar    
     2157      1866      1867 ar    
     2158      1865      1868 ar    
     2159      1869      1870 ar    
     2160      1796      1875 ar    
     2161      1796      1797 ar    
     2162      1800      1879 ar    
     2163      1800      1801 ar    
     2164      1804      1805 ar    
     2165      1804      1883 ar    
     2166      1808      1887 ar    
     2167      1808      1809 ar    
     2168      1812      1891 ar    
     2169      1812      1813 ar    
     2170      1816      1817 ar    
     2171      1816      1895 ar    
     2172      1820      1899 ar    
     2173      1820      1821 ar    
     2174      1824      1903 ar    
     2175      1824      1825 ar    
     2176      1828      1829 ar    
     2177      1828      1907 ar    
     2178      1832      1911 ar    
     2179      1832      1833 ar    
     2180      1836      1915 ar    
     2181      1836      1837 ar    
     2182      1840      1841 ar    
     2183      1840      1919 ar    
     2184      1844      1923 ar    
     2185      1844      1845 ar    
     2186      1848      1927 ar    
     2187      1848      1849 ar    
     2188      1852      1853 ar    
     2189      1852      1931 ar    
     2190      1856      1935 ar    
     2191      1856      1857 ar    
     2192      1860      1939 ar    
     2193      1860      1861 ar    
     2194      1864      1865 ar    
     2195      1864      1943 ar    
     2196      1868      1947 ar    
     2197      1868      1869 ar    
     2198      1792      1869 ar    
     2199      1792      1871 ar    
     2200      1792      1793 ar    
     2201      1874      1875 ar    
     2202      1875      1878 ar    
     2203      1878      1879 ar    
     2204      1879      1882 ar    
     2205      1882      1883 ar    
     2206      1883      1886 ar    
     2207      1886      1887 ar    
     2208      1887      1890 ar    
     2209      1890      1891 ar    
     2210      1891      1894 ar    
     2211      1894      1895 ar    
     2212      1895      1898 ar    
     2213      1898      1899 ar    
     2214      1899      1902 ar    
     2215      1902      1903 ar    
     2216      1903      1906 ar    
     2217      1906      1907 ar    
     2218      1907      1910 ar    
     2219      1910      1911 ar    
     2220      1911      1914 ar    
     2221      1914      1915 ar    
     2222      1915      1918 ar    
     2223      1918      1919 ar    
     2224      1919      1922 ar    
     2225      1922      1923 ar    
     2226      1923      1926 ar    
     2227      1926      1927 ar    
     2228      1927      1930 ar    
     2229      1930      1931 ar    
     2230      1931      1934 ar    
     2231      1934      1935 ar    
     2232      1935      1938 ar    
     2233      1938      1939 ar    
     2234      1939      1942 ar    
     2235      1942      1943 ar    
     2236      1943      1946 ar    
     2237      1946      1947 ar    
     2238      1947      1950 ar    
     2239      1871      1950 ar    
     2240      1871      1874 ar    
     2241      1873      1874 ar    
     2242      1873      1876 ar    
     2243      1876      1955 ar    
     2244      1876      1877 ar    
     2245      1877      1878 ar    
     2246      1877      1880 ar    
     2247      1880      1959 ar    
     2248      1880      1881 ar    
     2249      1881      1882 ar    
     2250      1881      1884 ar    
     2251      1885      1886 ar    
     2252      1884      1885 ar    
     2253      1884      1963 ar    
     2254      1885      1888 ar    
     2255      1888      1967 ar    
     2256      1888      1889 ar    
     2257      1889      1890 ar    
     2258      1889      1892 ar    
     2259      1892      1971 ar    
     2260      1892      1893 ar    
     2261      1893      1894 ar    
     2262      1893      1896 ar    
     2263      1897      1898 ar    
     2264      1896      1897 ar    
     2265      1896      1975 ar    
     2266      1897      1900 ar    
     2267      1900      1979 ar    
     2268      1900      1901 ar    
     2269      1901      1902 ar    
     2270      1901      1904 ar    
     2271      1904      1983 ar    
     2272      1904      1905 ar    
     2273      1905      1906 ar    
     2274      1905      1908 ar    
     2275      1909      1910 ar    
     2276      1908      1909 ar    
     2277      1908      1987 ar    
     2278      1909      1912 ar    
     2279      1912      1991 ar    
     2280      1912      1913 ar    
     2281      1913      1914 ar    
     2282      1913      1916 ar    
     2283      1916      1995 ar    
     2284      1916      1917 ar    
     2285      1917      1918 ar    
     2286      1917      1920 ar    
     2287      1921      1922 ar    
     2288      1920      1921 ar    
     2289      1920      1999 ar    
     2290      1921      1924 ar    
     2291      1924      2003 ar    
     2292      1924      1925 ar    
     2293      1925      1926 ar    
     2294      1925      1928 ar    
     2295      1928      2007 ar    
     2296      1928      1929 ar    
     2297      1929      1930 ar    
     2298      1929      1932 ar    
     2299      1933      1934 ar    
     2300      1932      1933 ar    
     2301      1932      2011 ar    
     2302      1933      1936 ar    
     2303      1936      2015 ar    
     2304      1936      1937 ar    
     2305      1937      1938 ar    
     2306      1937      1940 ar    
     2307      1940      2019 ar    
     2308      1940      1941 ar    
     2309      1941      1942 ar    
     2310      1941      1944 ar    
     2311      1945      1946 ar    
     2312      1944      1945 ar    
     2313      1944      2023 ar    
     2314      1945      1948 ar    
     2315      1948      2027 ar    
     2316      1948      1949 ar    
     2317      1949      1950 ar    
     2318      1872      1949 ar    
     2319      1872      1951 ar    
     2320      1872      1873 ar    
     2321      1954      1955 ar    
     2322      1955      1958 ar    
     2323      1958      1959 ar    
     2324      1959      1962 ar    
     2325      1962      1963 ar    
     2326      1963      1966 ar    
     2327      1966      1967 ar    
     2328      1967      1970 ar    
     2329      1970      1971 ar    
     2330      1971      1974 ar    
     2331      1974      1975 ar    
     2332      1975      1978 ar    
     2333      1978      1979 ar    
     2334      1979      1982 ar    
     2335      1982      1983 ar    
     2336      1983      1986 ar    
     2337      1986      1987 ar    
     2338      1987      1990 ar    
     2339      1990      1991 ar    
     2340      1991      1994 ar    
     2341      1994      1995 ar    
     2342      1995      1998 ar    
     2343      1998      1999 ar    
     2344      1999      2002 ar    
     2345      2002      2003 ar    
     2346      2003      2006 ar    
     2347      2006      2007 ar    
     2348      2007      2010 ar    
     2349      2010      2011 ar    
     2350      2011      2014 ar    
     2351      2014      2015 ar    
     2352      2015      2018 ar    
     2353      2018      2019 ar    
     2354      2019      2022 ar    
     2355      2022      2023 ar    
     2356      2023      2026 ar    
     2357      2026      2027 ar    
     2358      2027      2030 ar    
     2359      1951      2030 ar    
     2360      1951      1954 ar    
     2361      1953      1954 ar    
     2362      1953      1956 ar    
     2363      1956      2035 ar    
     2364      1956      1957 ar    
     2365      1957      1958 ar    
     2366      1957      1960 ar    
     2367      1960      2039 ar    
     2368      1960      1961 ar    
     2369      1961      1962 ar    
     2370      1961      1964 ar    
     2371      1965      1966 ar    
     2372      1964      1965 ar    
     2373      1964      2043 ar    
     2374      1965      1968 ar    
     2375      1968      2047 ar    
     2376      1968      1969 ar    
     2377      1969      1970 ar    
     2378      1969      1972 ar    
     2379      1972      2051 ar    
     2380      1972      1973 ar    
     2381      1973      1974 ar    
     2382      1973      1976 ar    
     2383      1977      1978 ar    
     2384      1976      1977 ar    
     2385      1976      2055 ar    
     2386      1977      1980 ar    
     2387      1980      2059 ar    
     2388      1980      1981 ar    
     2389      1981      1982 ar    
     2390      1981      1984 ar    
     2391      1984      2063 ar    
     2392      1984      1985 ar    
     2393      1985      1986 ar    
     2394      1985      1988 ar    
     2395      1989      1990 ar    
     2396      1988      1989 ar    
     2397      1988      2067 ar    
     2398      1989      1992 ar    
     2399      1992      2071 ar    
     2400      1992      1993 ar    
     2401      1993      1994 ar    
     2402      1993      1996 ar    
     2403      1996      2075 ar    
     2404      1996      1997 ar    
     2405      1997      1998 ar    
     2406      1997      2000 ar    
     2407      2001      2002 ar    
     2408      2000      2001 ar    
     2409      2000      2079 ar    
     2410      2001      2004 ar    
     2411      2004      2083 ar    
     2412      2004      2005 ar    
     2413      2005      2006 ar    
     2414      2005      2008 ar    
     2415      2008      2087 ar    
     2416      2008      2009 ar    
     2417      2009      2010 ar    
     2418      2009      2012 ar    
     2419      2013      2014 ar    
     2420      2012      2013 ar    
     2421      2012      2091 ar    
     2422      2013      2016 ar    
     2423      2016      2095 ar    
     2424      2016      2017 ar    
     2425      2017      2018 ar    
     2426      2017      2020 ar    
     2427      2020      2099 ar    
     2428      2020      2021 ar    
     2429      2021      2022 ar    
     2430      2021      2024 ar    
     2431      2025      2026 ar    
     2432      2024      2025 ar    
     2433      2024      2103 ar    
     2434      2025      2028 ar    
     2435      2028      2107 ar    
     2436      2028      2029 ar    
     2437      2029      2030 ar    
     2438      1952      2029 ar    
     2439      1952      2031 ar    
     2440      1952      1953 ar    
     2441      2035      2038 ar    
     2442      2039      2042 ar    
     2443      2043      2046 ar    
     2444      2047      2050 ar    
     2445      2051      2054 ar    
     2446      2055      2058 ar    
     2447      2059      2062 ar    
     2448      2063      2066 ar    
     2449      2067      2070 ar    
     2450      2071      2074 ar    
     2451      2075      2078 ar    
     2452      2079      2082 ar    
     2453      2083      2086 ar    
     2454      2087      2090 ar    
     2455      2091      2094 ar    
     2456      2095      2098 ar    
     2457      2099      2102 ar    
     2458      2103      2106 ar    
     2459      2107      2110 ar    
     2460      2031      2110 ar    
     2461      2031      2034 ar    
     2462      2033      2034 ar    
     2463      2034      2035 ar    
     2464      2033      2036 ar    
     2465      2038      2039 ar    
     2466      2037      2038 ar    
     2467      2037      2040 ar    
     2468      2041      2042 ar    
     2469      2042      2043 ar    
     2470      2041      2044 ar    
     2471      2045      2046 ar    
     2472      2046      2047 ar    
     2473      2045      2048 ar    
     2474      2050      2051 ar    
     2475      2049      2050 ar    
     2476      2049      2052 ar    
     2477      2053      2054 ar    
     2478      2054      2055 ar    
     2479      2053      2056 ar    
     2480      2057      2058 ar    
     2481      2058      2059 ar    
     2482      2057      2060 ar    
     2483      2062      2063 ar    
     2484      2061      2062 ar    
     2485      2061      2064 ar    
     2486      2065      2066 ar    
     2487      2066      2067 ar    
     2488      2065      2068 ar    
     2489      2069      2070 ar    
     2490      2070      2071 ar    
     2491      2069      2072 ar    
     2492      2074      2075 ar    
     2493      2073      2074 ar    
     2494      2073      2076 ar    
     2495      2077      2078 ar    
     2496      2078      2079 ar    
     2497      2077      2080 ar    
     2498      2081      2082 ar    
     2499      2082      2083 ar    
     2500      2081      2084 ar    
     2501      2086      2087 ar    
     2502      2085      2086 ar    
     2503      2085      2088 ar    
     2504      2089      2090 ar    
     2505      2090      2091 ar    
     2506      2089      2092 ar    
     2507      2093      2094 ar    
     2508      2094      2095 ar    
     2509      2093      2096 ar    
     2510      2098      2099 ar    
     2511      2097      2098 ar    
     2512      2097      2100 ar    
     2513      2101      2102 ar    
     2514      2102      2103 ar    
     2515      2101      2104 ar    
     2516      2105      2106 ar    
     2517      2106      2107 ar    
     2518      2105      2108 ar    
     2519      2109      2110 ar    
     2520      2036      2115 ar    
     2521      2036      2037 ar    
     2522      2040      2119 ar    
     2523      2040      2041 ar    
     2524      2044      2045 ar    
     2525      2044      2123 ar    
     2526      2048      2127 ar    
     2527      2048      2049 ar    
     2528      2052      2131 ar    
     2529      2052      2053 ar    
     2530      2056      2057 ar    
     2531      2056      2135 ar    
     2532      2060      2139 ar    
     2533      2060      2061 ar    
     2534      2064      2143 ar    
     2535      2064      2065 ar    
     2536      2068      2069 ar    
     2537      2068      2147 ar    
     2538      2072      2151 ar    
     2539      2072      2073 ar    
     2540      2076      2155 ar    
     2541      2076      2077 ar    
     2542      2080      2081 ar    
     2543      2080      2159 ar    
     2544      2084      2163 ar    
     2545      2084      2085 ar    
     2546      2088      2167 ar    
     2547      2088      2089 ar    
     2548      2092      2093 ar    
     2549      2092      2171 ar    
     2550      2096      2175 ar    
     2551      2096      2097 ar    
     2552      2100      2179 ar    
     2553      2100      2101 ar    
     2554      2104      2105 ar    
     2555      2104      2183 ar    
     2556      2108      2187 ar    
     2557      2108      2109 ar    
     2558      2032      2109 ar    
     2559      2032      2111 ar    
     2560      2032      2033 ar    
     2561      2114      2115 ar    
     2562      2115      2118 ar    
     2563      2118      2119 ar    
     2564      2119      2122 ar    
     2565      2122      2123 ar    
     2566      2123      2126 ar    
     2567      2126      2127 ar    
     2568      2127      2130 ar    
     2569      2130      2131 ar    
     2570      2131      2134 ar    
     2571      2134      2135 ar    
     2572      2135      2138 ar    
     2573      2138      2139 ar    
     2574      2139      2142 ar    
     2575      2142      2143 ar    
     2576      2143      2146 ar    
     2577      2146      2147 ar    
     2578      2147      2150 ar    
     2579      2150      2151 ar    
     2580      2151      2154 ar    
     2581      2154      2155 ar    
     2582      2155      2158 ar    
     2583      2158      2159 ar    
     2584      2159      2162 ar    
     2585      2162      2163 ar    
     2586      2163      2166 ar    
     2587      2166      2167 ar    
     2588      2167      2170 ar    
     2589      2170      2171 ar    
     2590      2171      2174 ar    
     2591      2174      2175 ar    
     2592      2175      2178 ar    
     2593      2178      2179 ar    
     2594      2179      2182 ar    
     2595      2182      2183 ar    
     2596      2183      2186 ar    
     2597      2186      2187 ar    
     2598      2187      2190 ar    
     2599      2111      2190 ar    
     2600      2111      2114 ar    
     2601      2113      2114 ar    
     2602      2113      2116 ar    
     2603      2116      2195 ar    
     2604      2116      2117 ar    
     2605      2117      2118 ar    
     2606      2117      2120 ar    
     2607      2120      2199 ar    
     2608      2120      2121 ar    
     2609      2121      2122 ar    
     2610      2121      2124 ar    
     2611      2125      2126 ar    
     2612      2124      2125 ar    
     2613      2124      2203 ar    
     2614      2125      2128 ar    
     2615      2128      2207 ar    
     2616      2128      2129 ar    
     2617      2129      2130 ar    
     2618      2129      2132 ar    
     2619      2132      2211 ar    
     2620      2132      2133 ar    
     2621      2133      2134 ar    
     2622      2133      2136 ar    
     2623      2137      2138 ar    
     2624      2136      2137 ar    
     2625      2136      2215 ar    
     2626      2137      2140 ar    
     2627      2140      2219 ar    
     2628      2140      2141 ar    
     2629      2141      2142 ar    
     2630      2141      2144 ar    
     2631      2144      2223 ar    
     2632      2144      2145 ar    
     2633      2145      2146 ar    
     2634      2145      2148 ar    
     2635      2149      2150 ar    
     2636      2148      2149 ar    
     2637      2148      2227 ar    
     2638      2149      2152 ar    
     2639      2152      2231 ar    
     2640      2152      2153 ar    
     2641      2153      2154 ar    
     2642      2153      2156 ar    
     2643      2156      2235 ar    
     2644      2156      2157 ar    
     2645      2157      2158 ar    
     2646      2157      2160 ar    
     2647      2161      2162 ar    
     2648      2160      2161 ar    
     2649      2160      2239 ar    
     2650      2161      2164 ar    
     2651      2164      2243 ar    
     2652      2164      2165 ar    
     2653      2165      2166 ar    
     2654      2165      2168 ar    
     2655      2168      2247 ar    
     2656      2168      2169 ar    
     2657      2169      2170 ar    
     2658      2169      2172 ar    
     2659      2173      2174 ar    
     2660      2172      2173 ar    
     2661      2172      2251 ar    
     2662      2173      2176 ar    
     2663      2176      2255 ar    
     2664      2176      2177 ar    
     2665      2177      2178 ar    
     2666      2177      2180 ar    
     2667      2180      2259 ar    
     2668      2180      2181 ar    
     2669      2181      2182 ar    
     2670      2181      2184 ar    
     2671      2185      2186 ar    
     2672      2184      2185 ar    
     2673      2184      2263 ar    
     2674      2185      2188 ar    
     2675      2188      2267 ar    
     2676      2188      2189 ar    
     2677      2189      2190 ar    
     2678      2112      2189 ar    
     2679      2112      2191 ar    
     2680      2112      2113 ar    
     2681      2194      2195 ar    
     2682      2195      2198 ar    
     2683      2198      2199 ar    
     2684      2199      2202 ar    
     2685      2202      2203 ar    
     2686      2203      2206 ar    
     2687      2206      2207 ar    
     2688      2207      2210 ar    
     2689      2210      2211 ar    
     2690      2211      2214 ar    
     2691      2214      2215 ar    
     2692      2215      2218 ar    
     2693      2218      2219 ar    
     2694      2219      2222 ar    
     2695      2222      2223 ar    
     2696      2223      2226 ar    
     2697      2226      2227 ar    
     2698      2227      2230 ar    
     2699      2230      2231 ar    
     2700      2231      2234 ar    
     2701      2234      2235 ar    
     2702      2235      2238 ar    
     2703      2238      2239 ar    
     2704      2239      2242 ar    
     2705      2242      2243 ar    
     2706      2243      2246 ar    
     2707      2246      2247 ar    
     2708      2247      2250 ar    
     2709      2250      2251 ar    
     2710      2251      2254 ar    
     2711      2254      2255 ar    
     2712      2255      2258 ar    
     2713      2258      2259 ar    
     2714      2259      2262 ar    
     2715      2262      2263 ar    
     2716      2263      2266 ar    
     2717      2266      2267 ar    
     2718      2267      2270 ar    
     2719      2191      2270 ar    
     2720      2191      2194 ar    
     2721      2193      2194 ar    
     2722      2193      2196 ar    
     2723      2196      2275 ar    
     2724      2196      2197 ar    
     2725      2197      2198 ar    
     2726      2197      2200 ar    
     2727      2200      2279 ar    
     2728      2200      2201 ar    
     2729      2201      2202 ar    
     2730      2201      2204 ar    
     2731      2205      2206 ar    
     2732      2204      2205 ar    
     2733      2204      2283 ar    
     2734      2205      2208 ar    
     2735      2208      2287 ar    
     2736      2208      2209 ar    
     2737      2209      2210 ar    
     2738      2209      2212 ar    
     2739      2212      2291 ar    
     2740      2212      2213 ar    
     2741      2213      2214 ar    
     2742      2213      2216 ar    
     2743      2217      2218 ar    
     2744      2216      2217 ar    
     2745      2216      2295 ar    
     2746      2217      2220 ar    
     2747      2220      2299 ar    
     2748      2220      2221 ar    
     2749      2221      2222 ar    
     2750      2221      2224 ar    
     2751      2224      2303 ar    
     2752      2224      2225 ar    
     2753      2225      2226 ar    
     2754      2225      2228 ar    
     2755      2229      2230 ar    
     2756      2228      2229 ar    
     2757      2228      2307 ar    
     2758      2229      2232 ar    
     2759      2232      2311 ar    
     2760      2232      2233 ar    
     2761      2233      2234 ar    
     2762      2233      2236 ar    
     2763      2236      2315 ar    
     2764      2236      2237 ar    
     2765      2237      2238 ar    
     2766      2237      2240 ar    
     2767      2241      2242 ar    
     2768      2240      2241 ar    
     2769      2240      2319 ar    
     2770      2241      2244 ar    
     2771      2244      2323 ar    
     2772      2244      2245 ar    
     2773      2245      2246 ar    
     2774      2245      2248 ar    
     2775      2248      2327 ar    
     2776      2248      2249 ar    
     2777      2249      2250 ar    
     2778      2249      2252 ar    
     2779      2253      2254 ar    
     2780      2252      2253 ar    
     2781      2252      2331 ar    
     2782      2253      2256 ar    
     2783      2256      2335 ar    
     2784      2256      2257 ar    
     2785      2257      2258 ar    
     2786      2257      2260 ar    
     2787      2260      2339 ar    
     2788      2260      2261 ar    
     2789      2261      2262 ar    
     2790      2261      2264 ar    
     2791      2265      2266 ar    
     2792      2264      2265 ar    
     2793      2264      2343 ar    
     2794      2265      2268 ar    
     2795      2268      2347 ar    
     2796      2268      2269 ar    
     2797      2269      2270 ar    
     2798      2192      2269 ar    
     2799      2192      2271 ar    
     2800      2192      2193 ar    
     2801      2275      2278 ar    
     2802      2279      2282 ar    
     2803      2283      2286 ar    
     2804      2287      2290 ar    
     2805      2291      2294 ar    
     2806      2295      2298 ar    
     2807      2299      2302 ar    
     2808      2303      2306 ar    
     2809      2307      2310 ar    
     2810      2311      2314 ar    
     2811      2315      2318 ar    
     2812      2319      2322 ar    
     2813      2323      2326 ar    
     2814      2327      2330 ar    
     2815      2331      2334 ar    
     2816      2335      2338 ar    
     2817      2339      2342 ar    
     2818      2343      2346 ar    
     2819      2347      2350 ar    
     2820      2271      2350 ar    
     2821      2271      2274 ar    
     2822      2273      2274 ar    
     2823      2274      2275 ar    
     2824      2273      2276 ar    
     2825      2278      2279 ar    
     2826      2277      2278 ar    
     2827      2277      2280 ar    
     2828      2281      2282 ar    
     2829      2282      2283 ar    
     2830      2281      2284 ar    
     2831      2285      2286 ar    
     2832      2286      2287 ar    
     2833      2285      2288 ar    
     2834      2290      2291 ar    
     2835      2289      2290 ar    
     2836      2289      2292 ar    
     2837      2293      2294 ar    
     2838      2294      2295 ar    
     2839      2293      2296 ar    
     2840      2297      2298 ar    
     2841      2298      2299 ar    
     2842      2297      2300 ar    
     2843      2302      2303 ar    
     2844      2301      2302 ar    
     2845      2301      2304 ar    
     2846      2305      2306 ar    
     2847      2306      2307 ar    
     2848      2305      2308 ar    
     2849      2309      2310 ar    
     2850      2310      2311 ar    
     2851      2309      2312 ar    
     2852      2314      2315 ar    
     2853      2313      2314 ar    
     2854      2313      2316 ar    
     2855      2317      2318 ar    
     2856      2318      2319 ar    
     2857      2317      2320 ar    
     2858      2321      2322 ar    
     2859      2322      2323 ar    
     2860      2321      2324 ar    
     2861      2326      2327 ar    
     2862      2325      2326 ar    
     2863      2325      2328 ar    
     2864      2329      2330 ar    
     2865      2330      2331 ar    
     2866      2329      2332 ar    
     2867      2333      2334 ar    
     2868      2334      2335 ar    
     2869      2333      2336 ar    
     2870      2338      2339 ar    
     2871      2337      2338 ar    
     2872      2337      2340 ar    
     2873      2341      2342 ar    
     2874      2342      2343 ar    
     2875      2341      2344 ar    
     2876      2345      2346 ar    
     2877      2346      2347 ar    
     2878      2345      2348 ar    
     2879      2349      2350 ar    
     2880      2276      2355 ar    
     2881      2276      2277 ar    
     2882      2280      2359 ar    
     2883      2280      2281 ar    
     2884      2284      2285 ar    
     2885      2284      2363 ar    
     2886      2288      2367 ar    
     2887      2288      2289 ar    
     2888      2292      2371 ar    
     2889      2292      2293 ar    
     2890      2296      2297 ar    
     2891      2296      2375 ar    
     2892      2300      2379 ar    
     2893      2300      2301 ar    
     2894      2304      2383 ar    
     2895      2304      2305 ar    
     2896      2308      2309 ar    
     2897      2308      2387 ar    
     2898      2312      2391 ar    
     2899      2312      2313 ar    
     2900      2316      2395 ar    
     2901      2316      2317 ar    
     2902      2320      2321 ar    
     2903      2320      2399 ar    
     2904      2324      2403 ar    
     2905      2324      2325 ar    
     2906      2328      2407 ar    
     2907      2328      2329 ar    
     2908      2332      2333 ar    
     2909      2332      2411 ar    
     2910      2336      2415 ar    
     2911      2336      2337 ar    
     2912      2340      2419 ar    
     2913      2340      2341 ar    
     2914      2344      2345 ar    
     2915      2344      2423 ar    
     2916      2348      2427 ar    
     2917      2348      2349 ar    
     2918      2272      2349 ar    
     2919      2272      2351 ar    
     2920      2272      2273 ar    
     2921      2354      2355 ar    
     2922      2355      2358 ar    
     2923      2358      2359 ar    
     2924      2359      2362 ar    
     2925      2362      2363 ar    
     2926      2363      2366 ar    
     2927      2366      2367 ar    
     2928      2367      2370 ar    
     2929      2370      2371 ar    
     2930      2371      2374 ar    
     2931      2374      2375 ar    
     2932      2375      2378 ar    
     2933      2378      2379 ar    
     2934      2379      2382 ar    
     2935      2382      2383 ar    
     2936      2383      2386 ar    
     2937      2386      2387 ar    
     2938      2387      2390 ar    
     2939      2390      2391 ar    
     2940      2391      2394 ar    
     2941      2394      2395 ar    
     2942      2395      2398 ar    
     2943      2398      2399 ar    
     2944      2399      2402 ar    
     2945      2402      2403 ar    
     2946      2403      2406 ar    
     2947      2406      2407 ar    
     2948      2407      2410 ar    
     2949      2410      2411 ar    
     2950      2411      2414 ar    
     2951      2414      2415 ar    
     2952      2415      2418 ar    
     2953      2418      2419 ar    
     2954      2419      2422 ar    
     2955      2422      2423 ar    
     2956      2423      2426 ar    
     2957      2426      2427 ar    
     2958      2427      2430 ar    
     2959      2351      2430 ar    
     2960      2351      2354 ar    
     2961      2353      2354 ar    
     2962      2353      2356 ar    
     2963      2356      2435 ar    
     2964      2356      2357 ar    
     2965      2357      2358 ar    
     2966      2357      2360 ar    
     2967      2360      2439 ar    
     2968      2360      2361 ar    
     2969      2361      2362 ar    
     2970      2361      2364 ar    
     2971      2365      2366 ar    
     2972      2364      2365 ar    
     2973      2364      2443 ar    
     2974      2365      2368 ar    
     2975      2368      2447 ar    
     2976      2368      2369 ar    
     2977      2369      2370 ar    
     2978      2369      2372 ar    
     2979      2372      2451 ar    
     2980      2372      2373 ar    
     2981      2373      2374 ar    
     2982      2373      2376 ar    
     2983      2377      2378 ar    
     2984      2376      2377 ar    
     2985      2376      2455 ar    
     2986      2377      2380 ar    
     2987      2380      2459 ar    
     2988      2380      2381 ar    
     2989      2381      2382 ar    
     2990      2381      2384 ar    
     2991      2384      2463 ar    
     2992      2384      2385 ar    
     2993      2385      2386 ar    
     2994      2385      2388 ar    
     2995      2389      2390 ar    
     2996      2388      2389 ar    
     2997      2388      2467 ar    
     2998      2389      2392 ar    
     2999      2392      2471 ar    
     3000      2392      2393 ar    
     3001      2393      2394 ar    
     3002      2393      2396 ar    
     3003      2396      2475 ar    
     3004      2396      2397 ar    
     3005      2397      2398 ar    
     3006      2397      2400 ar    
     3007      2401      2402 ar    
     3008      2400      2401 ar    
     3009      2400      2479 ar    
     3010      2401      2404 ar    
     3011      2404      2483 ar    
     3012      2404      2405 ar    
     3013      2405      2406 ar    
     3014      2405      2408 ar    
     3015      2408      2487 ar    
     3016      2408      2409 ar    
     3017      2409      2410 ar    
     3018      2409      2412 ar    
     3019      2413      2414 ar    
     3020      2412      2413 ar    
     3021      2412      2491 ar    
     3022      2413      2416 ar    
     3023      2416      2495 ar    
     3024      2416      2417 ar    
     3025      2417      2418 ar    
     3026      2417      2420 ar    
     3027      2420      2499 ar    
     3028      2420      2421 ar    
     3029      2421      2422 ar    
     3030      2421      2424 ar    
     3031      2425      2426 ar    
     3032      2424      2425 ar    
     3033      2424      2503 ar    
     3034      2425      2428 ar    
     3035      2428      2507 ar    
     3036      2428      2429 ar    
     3037      2429      2430 ar    
     3038      2352      2429 ar    
     3039      2352      2431 ar    
     3040      2352      2353 ar    
     3041      2434      2435 ar    
     3042      2435      2438 ar    
     3043      2438      2439 ar    
     3044      2439      2442 ar    
     3045      2442      2443 ar    
     3046      2443      2446 ar    
     3047      2446      2447 ar    
     3048      2447      2450 ar    
     3049      2450      2451 ar    
     3050      2451      2454 ar    
     3051      2454      2455 ar    
     3052      2455      2458 ar    
     3053      2458      2459 ar    
     3054      2459      2462 ar    
     3055      2462      2463 ar    
     3056      2463      2466 ar    
     3057      2466      2467 ar    
     3058      2467      2470 ar    
     3059      2470      2471 ar    
     3060      2471      2474 ar    
     3061      2474      2475 ar    
     3062      2475      2478 ar    
     3063      2478      2479 ar    
     3064      2479      2482 ar    
     3065      2482      2483 ar    
     3066      2483      2486 ar    
     3067      2486      2487 ar    
     3068      2487      2490 ar    
     3069      2490      2491 ar    
     3070      2491      2494 ar    
     3071      2494      2495 ar    
     3072      2495      2498 ar    
     3073      2498      2499 ar    
     3074      2499      2502 ar    
     3075      2502      2503 ar    
     3076      2503      2506 ar    
     3077      2506      2507 ar    
     3078      2507      2510 ar    
     3079      2431      2510 ar    
     3080      2431      2434 ar    
     3081      2433      2434 ar    
     3082      2433      2436 ar    
     3083      2436      2515 ar    
     3084      2436      2437 ar    
     3085      2437      2438 ar    
     3086      2437      2440 ar    
     3087      2440      2519 ar    
     3088      2440      2441 ar    
     3089      2441      2442 ar    
     3090      2441      2444 ar    
     3091      2445      2446 ar    
     3092      2444      2445 ar    
     3093      2444      2523 ar    
     3094      2445      2448 ar    
     3095      2448      2527 ar    
     3096      2448      2449 ar    
     3097      2449      2450 ar    
     3098      2449      2452 ar    
     3099      2452      2531 ar    
     3100      2452      2453 ar    
     3101      2453      2454 ar    
     3102      2453      2456 ar    
     3103      2457      2458 ar    
     3104      2456      2457 ar    
     3105      2456      2535 ar    
     3106      2457      2460 ar    
     3107      2460      2539 ar    
     3108      2460      2461 ar    
     3109      2461      2462 ar    
     3110      2461      2464 ar    
     3111      2464      2543 ar    
     3112      2464      2465 ar    
     3113      2465      2466 ar    
     3114      2465      2468 ar    
     3115      2469      2470 ar    
     3116      2468      2469 ar    
     3117      2468      2547 ar    
     3118      2469      2472 ar    
     3119      2472      2551 ar    
     3120      2472      2473 ar    
     3121      2473      2474 ar    
     3122      2473      2476 ar    
     3123      2476      2555 ar    
     3124      2476      2477 ar    
     3125      2477      2478 ar    
     3126      2477      2480 ar    
     3127      2481      2482 ar    
     3128      2480      2481 ar    
     3129      2480      2559 ar    
     3130      2481      2484 ar    
     3131      2484      2563 ar    
     3132      2484      2485 ar    
     3133      2485      2486 ar    
     3134      2485      2488 ar    
     3135      2488      2567 ar    
     3136      2488      2489 ar    
     3137      2489      2490 ar    
     3138      2489      2492 ar    
     3139      2493      2494 ar    
     3140      2492      2493 ar    
     3141      2492      2571 ar    
     3142      2493      2496 ar    
     3143      2496      2575 ar    
     3144      2496      2497 ar    
     3145      2497      2498 ar    
     3146      2497      2500 ar    
     3147      2500      2579 ar    
     3148      2500      2501 ar    
     3149      2501      2502 ar    
     3150      2501      2504 ar    
     3151      2505      2506 ar    
     3152      2504      2505 ar    
     3153      2504      2583 ar    
     3154      2505      2508 ar    
     3155      2508      2587 ar    
     3156      2508      2509 ar    
     3157      2509      2510 ar    
     3158      2432      2509 ar    
     3159      2432      2511 ar    
     3160      2432      2433 ar    
     3161      2515      2518 ar    
     3162      2519      2522 ar    
     3163      2523      2526 ar    
     3164      2527      2530 ar    
     3165      2531      2534 ar    
     3166      2535      2538 ar    
     3167      2539      2542 ar    
     3168      2543      2546 ar    
     3169      2547      2550 ar    
     3170      2551      2554 ar    
     3171      2555      2558 ar    
     3172      2559      2562 ar    
     3173      2563      2566 ar    
     3174      2567      2570 ar    
     3175      2571      2574 ar    
     3176      2575      2578 ar    
     3177      2579      2582 ar    
     3178      2583      2586 ar    
     3179      2587      2590 ar    
     3180      2511      2590 ar    
     3181      2511      2514 ar    
     3182      2513      2514 ar    
     3183      2514      2515 ar    
     3184      2513      2516 ar    
     3185      2518      2519 ar    
     3186      2517      2518 ar    
     3187      2517      2520 ar    
     3188      2521      2522 ar    
     3189      2522      2523 ar    
     3190      2521      2524 ar    
     3191      2525      2526 ar    
     3192      2526      2527 ar    
     3193      2525      2528 ar    
     3194      2530      2531 ar    
     3195      2529      2530 ar    
     3196      2529      2532 ar    
     3197      2533      2534 ar    
     3198      2534      2535 ar    
     3199      2533      2536 ar    
     3200      2537      2538 ar    
     3201      2538      2539 ar    
     3202      2537      2540 ar    
     3203      2542      2543 ar    
     3204      2541      2542 ar    
     3205      2541      2544 ar    
     3206      2545      2546 ar    
     3207      2546      2547 ar    
     3208      2545      2548 ar    
     3209      2549      2550 ar    
     3210      2550      2551 ar    
     3211      2549      2552 ar    
     3212      2554      2555 ar    
     3213      2553      2554 ar    
     3214      2553      2556 ar    
     3215      2557      2558 ar    
     3216      2558      2559 ar    
     3217      2557      2560 ar    
     3218      2561      2562 ar    
     3219      2562      2563 ar    
     3220      2561      2564 ar    
     3221      2566      2567 ar    
     3222      2565      2566 ar    
     3223      2565      2568 ar    
     3224      2569      2570 ar    
     3225      2570      2571 ar    
     3226      2569      2572 ar    
     3227      2573      2574 ar    
     3228      2574      2575 ar    
     3229      2573      2576 ar    
     3230      2578      2579 ar    
     3231      2577      2578 ar    
     3232      2577      2580 ar    
     3233      2581      2582 ar    
     3234      2582      2583 ar    
     3235      2581      2584 ar    
     3236      2585      2586 ar    
     3237      2586      2587 ar    
     3238      2585      2588 ar    
     3239      2589      2590 ar    
     3240      2516      2595 ar    
     3241      2516      2517 ar    
     3242      2520      2599 ar    
     3243      2520      2521 ar    
     3244      2524      2525 ar    
     3245      2524      2603 ar    
     3246      2528      2607 ar    
     3247      2528      2529 ar    
     3248      2532      2611 ar    
     3249      2532      2533 ar    
     3250      2536      2537 ar    
     3251      2536      2615 ar    
     3252      2540      2619 ar    
     3253      2540      2541 ar    
     3254      2544      2623 ar    
     3255      2544      2545 ar    
     3256      2548      2549 ar    
     3257      2548      2627 ar    
     3258      2552      2631 ar    
     3259      2552      2553 ar    
     3260      2556      2635 ar    
     3261      2556      2557 ar    
     3262      2560      2561 ar    
     3263      2560      2639 ar    
     3264      2564      2643 ar    
     3265      2564      2565 ar    
     3266      2568      2647 ar    
     3267      2568      2569 ar    
     3268      2572      2573 ar    
     3269      2572      2651 ar    
     3270      2576      2655 ar    
     3271      2576      2577 ar    
     3272      2580      2659 ar    
     3273      2580      2581 ar    
     3274      2584      2585 ar    
     3275      2584      2663 ar    
     3276      2588      2667 ar    
     3277      2588      2589 ar    
     3278      2512      2589 ar    
     3279      2512      2591 ar    
     3280      2512      2513 ar    
     3281      2594      2595 ar    
     3282      2595      2598 ar    
     3283      2598      2599 ar    
     3284      2599      2602 ar    
     3285      2602      2603 ar    
     3286      2603      2606 ar    
     3287      2606      2607 ar    
     3288      2607      2610 ar    
     3289      2610      2611 ar    
     3290      2611      2614 ar    
     3291      2614      2615 ar    
     3292      2615      2618 ar    
     3293      2618      2619 ar    
     3294      2619      2622 ar    
     3295      2622      2623 ar    
     3296      2623      2626 ar    
     3297      2626      2627 ar    
     3298      2627      2630 ar    
     3299      2630      2631 ar    
     3300      2631      2634 ar    
     3301      2634      2635 ar    
     3302      2635      2638 ar    
     3303      2638      2639 ar    
     3304      2639      2642 ar    
     3305      2642      2643 ar    
     3306      2643      2646 ar    
     3307      2646      2647 ar    
     3308      2647      2650 ar    
     3309      2650      2651 ar    
     3310      2651      2654 ar    
     3311      2654      2655 ar    
     3312      2655      2658 ar    
     3313      2658      2659 ar    
     3314      2659      2662 ar    
     3315      2662      2663 ar    
     3316      2663      2666 ar    
     3317      2666      2667 ar    
     3318      2667      2670 ar    
     3319      2591      2670 ar    
     3320      2591      2594 ar    
     3321      2593      2594 ar    
     3322      2593      2596 ar    
     3323      2596      2597 ar    
     3324      2597      2598 ar    
     3325      2597      2600 ar    
     3326      2600      2601 ar    
     3327      2601      2602 ar    
     3328      2601      2604 ar    
     3329      2605      2606 ar    
     3330      2604      2605 ar    
     3331      2605      2608 ar    
     3332      2608      2609 ar    
     3333      2609      2610 ar    
     3334      2609      2612 ar    
     3335      2612      2613 ar    
     3336      2613      2614 ar    
     3337      2613      2616 ar    
     3338      2617      2618 ar    
     3339      2616      2617 ar    
     3340      2617      2620 ar    
     3341      2620      2621 ar    
     3342      2621      2622 ar    
     3343      2621      2624 ar    
     3344      2624      2625 ar    
     3345      2625      2626 ar    
     3346      2625      2628 ar    
     3347      2629      2630 ar    
     3348      2628      2629 ar    
     3349      2629      2632 ar    
     3350      2632      2633 ar    
     3351      2633      2634 ar    
     3352      2633      2636 ar    
     3353      2636      2637 ar    
     3354      2637      2638 ar    
     3355      2637      2640 ar    
     3356      2641      2642 ar    
     3357      2640      2641 ar    
     3358      2641      2644 ar    
     3359      2644      2645 ar    
     3360      2645      2646 ar    
     3361      2645      2648 ar    
     3362      2648      2649 ar    
     3363      2649      2650 ar    
     3364      2649      2652 ar    
     3365      2653      2654 ar    
     3366      2652      2653 ar    
     3367      2653      2656 ar    
     3368      2656      2657 ar    
     3369      2657      2658 ar    
     3370      2657      2660 ar    
     3371      2660      2661 ar    
     3372      2661      2662 ar    
     3373      2661      2664 ar    
     3374      2665      2666 ar    
     3375      2664      2665 ar    
     3376      2665      2668 ar    
     3377      2668      2669 ar    
     3378      2669      2670 ar    
     3379      2592      2669 ar    
     3380      2592      2593 ar    
@<TRIPOS>SUBSTRUCTURE
 1 UNK 1
@<TRIPOS>COMMENT
 WM_BOX
        p        -0.000000000000008        49.119999999999997         0.000000000000000         0.000000000000000
        p        -0.000000000000008         0.000000000000082        51.048000000000002         0.000000000000000
        p        -5.000000000000000         0.000000000000139         0.000000000000139        85.391999999999996
