@<TRIPOS>MOLECULE
Winmostar
      6040      6020      1000         0         0
SMALL
USER_CHARGES


@<TRIPOS>ATOM
        1 C1           22.109600000        28.720800000        13.810300000 C.3       1 pe      -0.084813245
        2 C2           21.218700000        29.941200000        13.563100000 C.3       1 pe      -0.084813245
        3 H3           22.306300000        28.241200000        12.851700000 H         1 pe       0.041986755
        4 H4           23.055300000        29.050100000        14.230300000 H         1 pe       0.041986755
        5 H5           21.651800000        28.005000000        14.482900000 H         1 pe       0.041986755
        6 H6           20.742800000        29.816200000        12.593900000 H         1 pe       0.041986755
        7 H8           21.877700000        30.792200000        13.522500000 H         1 pe       0.041986755
        8 C1           20.121800000        30.272700000        14.581200000 C.3       2 pe      -0.084813245
        9 C2           20.535400000        29.986900000        16.032600000 C.3       2 pe      -0.084813245
       10 H4           19.236700000        29.706000000        14.310800000 H         2 pe       0.041986755
       11 H5           19.886500000        31.332000000        14.480000000 H         2 pe       0.041986755
       12 H6           21.563200000        30.310900000        16.175300000 H         2 pe       0.041986755
       13 H8           20.481300000        28.921300000        16.229900000 H         2 pe       0.041986755
       14 C1           19.677300000        30.711500000        17.076800000 C.3       3 pe      -0.084813245
       15 C2           18.156000000        30.666800000        16.877300000 C.3       3 pe      -0.084813245
       16 H4           19.971900000        31.759000000        17.074600000 H         3 pe       0.041986755
       17 H5           19.909900000        30.287200000        18.048900000 H         3 pe       0.041986755
       18 H6           17.911700000        31.334200000        16.055900000 H         3 pe       0.041986755
       19 H8           17.690600000        31.048500000        17.782700000 H         3 pe       0.041986755
       20 C1           17.555200000        29.274500000        16.656700000 C.3       4 pe      -0.084813245
       21 C2           16.126500000        29.416500000        16.121200000 C.3       4 pe      -0.084813245
       22 H4           17.519100000        28.774700000        17.616700000 H         4 pe       0.041986755
       23 H5           18.153100000        28.682500000        15.978800000 H         4 pe       0.041986755
       24 H6           16.052100000        30.268900000        15.457100000 H         4 pe       0.041986755
       25 H8           15.482300000        29.598600000        16.966200000 H         4 pe       0.041986755
       26 C1           15.663800000        28.206600000        15.301700000 C.3       5 pe      -0.084813245
       27 C2           14.409100000        27.486600000        15.812600000 C.3       5 pe      -0.084813245
       28 H4           16.452400000        27.462700000        15.235400000 H         5 pe       0.041986755
       29 H5           15.479500000        28.561400000        14.297400000 H         5 pe       0.041986755
       30 H6           14.701100000        26.848800000        16.627600000 H         5 pe       0.041986755
       31 H8           14.084300000        26.838300000        15.004700000 H         5 pe       0.041986755
       32 C1           13.192200000        28.342000000        16.210900000 C.3       6 pe      -0.084813245
       33 C2           12.755100000        28.226400000        17.688800000 C.3       6 pe      -0.084813245
       34 H4           12.358500000        27.928200000        15.650600000 H         6 pe       0.041986755
       35 H5           13.310500000        29.379200000        15.900400000 H         6 pe       0.041986755
       36 H6           12.918800000        27.222900000        18.067600000 H         6 pe       0.041986755
       37 H8           11.675700000        28.370100000        17.668500000 H         6 pe       0.041986755
       38 C1           13.287200000        29.310400000        18.653500000 C.3       7 pe      -0.084813245
       39 C2           14.419300000        28.970300000        19.656200000 C.3       7 pe      -0.084813245
       40 H4           12.434700000        29.607300000        19.262000000 H         7 pe       0.041986755
       41 H5           13.572300000        30.194700000        18.087100000 H         7 pe       0.041986755
       42 H6           13.974800000        28.930200000        20.648700000 H         7 pe       0.041986755
       43 H8           15.120100000        29.805100000        19.639800000 H         7 pe       0.041986755
       44 C1           15.216000000        27.672600000        19.433900000 C.3       8 pe      -0.084813245
       45 C2           16.456200000        27.586900000        20.335400000 C.3       8 pe      -0.084813245
       46 H4           15.578800000        27.676100000        18.421600000 H         8 pe       0.041986755
       47 H5           14.579600000        26.808800000        19.606600000 H         8 pe       0.041986755
       48 H6           16.154900000        27.807200000        21.359400000 H         8 pe       0.041986755
       49 H8           17.152600000        28.358900000        20.017900000 H         8 pe       0.041986755
       50 C1           17.186400000        26.219800000        20.348800000 C.3       9 pe      -0.084813245
       51 C2           17.327100000        25.428000000        19.035100000 C.3       9 pe      -0.084813245
       52 H4           16.694600000        25.571300000        21.064800000 H         9 pe       0.041986755
       53 H5           18.186500000        26.386600000        20.726500000 H         9 pe       0.041986755
       54 H6           16.449500000        25.533900000        18.406000000 H         9 pe       0.041986755
       55 H8           17.417500000        24.374600000        19.298800000 H         9 pe       0.041986755
       56 C1           18.592700000        25.812200000        18.257100000 C.3      10 pe      -0.084813245
       57 C2           18.505700000        25.248100000        16.837800000 C.3      10 pe      -0.084813245
       58 H4           19.467300000        25.402000000        18.761900000 H        10 pe       0.041986755
       59 H5           18.681300000        26.890400000        18.198500000 H        10 pe       0.041986755
       60 H6           17.682800000        25.736500000        16.321900000 H        10 pe       0.041986755
       61 H8           18.318500000        24.177700000        16.899200000 H        10 pe       0.041986755
       62 C1           19.796900000        25.487200000        16.047700000 C.3      11 pe      -0.084813245
       63 C2           19.579200000        25.112500000        14.568800000 C.3      11 pe      -0.084813245
       64 H4           20.583900000        24.865400000        16.458900000 H        11 pe       0.041986755
       65 H5           20.114100000        26.520700000        16.157000000 H        11 pe       0.041986755
       66 H6           18.680300000        24.508000000        14.467400000 H        11 pe       0.041986755
       67 H8           20.432300000        24.526700000        14.229000000 H        11 pe       0.041986755
       68 C1           19.476500000        26.354600000        13.675500000 C.3      12 pe      -0.084813245
       69 C2           18.439700000        26.231500000        12.560400000 C.3      12 pe      -0.084813245
       70 H4           20.446700000        26.503500000        13.209000000 H        12 pe       0.041986755
       71 H5           19.206300000        27.218600000        14.275900000 H        12 pe       0.041986755
       72 H6           17.454900000        26.128600000        13.014700000 H        12 pe       0.041986755
       73 H8           18.662300000        25.351900000        11.957900000 H        12 pe       0.041986755
       74 C1           18.527700000        27.496400000        11.680900000 C.3      13 pe      -0.084813245
       75 C2           17.164100000        28.037400000        11.229100000 C.3      13 pe      -0.084813245
       76 H4           19.136300000        27.280100000        10.803300000 H        13 pe       0.041986755
       77 H5           19.016000000        28.278400000        12.249400000 H        13 pe       0.041986755
       78 H6           16.441800000        27.904000000        12.029200000 H        13 pe       0.041986755
       79 H8           16.839400000        27.514400000        10.334500000 H        13 pe       0.041986755
       80 C1           17.250200000        29.521900000        10.870300000 C.3      14 pe      -0.084813245
       81 C2           15.881600000        30.071100000        10.428000000 C.3      14 pe      -0.084813245
       82 H4           17.952200000        29.639500000        10.045300000 H        14 pe       0.041986755
       83 H5           17.621100000        30.082900000        11.726000000 H        14 pe       0.041986755
       84 H6           15.443100000        29.430600000         9.663540000 H        14 pe       0.041986755
       85 H8           16.047000000        31.050000000         9.980100000 H        14 pe       0.041986755
       86 C1           14.914000000        30.258600000        11.610400000 C.3      15 pe      -0.084813245
       87 C2           13.901500000        29.119800000        11.767900000 C.3      15 pe      -0.084813245
       88 H4           14.385300000        31.200900000        11.467600000 H        15 pe       0.041986755
       89 H5           15.470800000        30.327500000        12.541000000 H        15 pe       0.041986755
       90 H6           13.847900000        28.868100000        12.818100000 H        15 pe       0.041986755
       91 H8           14.196700000        28.243800000        11.196500000 H        15 pe       0.041986755
       92 C1           12.530700000        29.598600000        11.313900000 C.3      16 pe      -0.084813245
       93 C2           11.441900000        28.516300000        11.371200000 C.3      16 pe      -0.084813245
       94 H4           12.653400000        29.924300000        10.288800000 H        16 pe       0.041986755
       95 H5           12.235700000        30.441500000        11.928500000 H        16 pe       0.041986755
       96 H6           11.753500000        27.657500000        10.781800000 H        16 pe       0.041986755
       97 H8           10.533000000        28.923600000        10.940700000 H        16 pe       0.041986755
       98 C1           11.053100000        28.096800000        12.789300000 C.3      17 pe      -0.084813245
       99 C2           10.939500000        26.575000000        12.916300000 C.3      17 pe      -0.084813245
      100 H4           10.070900000        28.520000000        12.997000000 H        17 pe       0.041986755
      101 H5           11.743600000        28.490300000        13.523200000 H        17 pe       0.041986755
      102 H6           10.232500000        26.227900000        12.166000000 H        17 pe       0.041986755
      103 H8           10.512000000        26.387100000        13.898800000 H        17 pe       0.041986755
      104 C1           12.294200000        25.830800000        12.838700000 C.3      18 pe      -0.084813245
      105 C2           12.360700000        24.706000000        11.781800000 C.3      18 pe      -0.084813245
      106 H4           12.459900000        25.369400000        13.809200000 H        18 pe       0.041986755
      107 H5           13.100400000        26.538400000        12.680600000 H        18 pe       0.041986755
      108 H6           11.437000000        24.655000000        11.211300000 H        18 pe       0.041986755
      109 H8           12.494800000        23.756400000        12.298200000 H        18 pe       0.041986755
      110 C1           13.498700000        24.872900000        10.764100000 C.3      19 pe      -0.084813245
      111 C2           14.801100000        24.210600000        11.218700000 C.3      19 pe      -0.084813245
      112 H4           13.662200000        25.927100000        10.548100000 H        19 pe       0.041986755
      113 H5           13.196500000        24.372900000         9.847500000 H        19 pe       0.041986755
      114 H6           14.686000000        23.133900000        11.191600000 H        19 pe       0.041986755
      115 H8           15.035200000        24.526400000        12.233700000 H        19 pe       0.041986755
      116 C1           15.939600000        24.653500000        10.294700000 C.3      20 pe      -0.084813245
      117 C2           17.002700000        23.590900000         9.971170000 C.3      20 pe      -0.084813245
      118 H4           16.449800000        25.418000000        10.850500000 H        20 pe       0.041986755
      119 H5           15.550600000        25.105100000         9.385960000 H        20 pe       0.041986755
      120 H6           17.207300000        23.011300000        10.870800000 H        20 pe       0.041986755
      121 H8           17.919000000        24.111100000         9.691200000 H        20 pe       0.041986755
      122 C1           16.637500000        22.627500000         8.829980000 C.3      21 pe      -0.084813245
      123 C2           16.377700000        23.339200000         7.488410000 C.3      21 pe      -0.084813245
      124 H4           15.752400000        22.071100000         9.117420000 H        21 pe       0.041986755
      125 H5           17.467400000        21.931600000         8.712900000 H        21 pe       0.041986755
      126 H6           17.079500000        24.165200000         7.376080000 H        21 pe       0.041986755
      127 H8           15.365200000        23.729200000         7.496240000 H        21 pe       0.041986755
      128 C1           16.528900000        22.423500000         6.263030000 C.3      22 pe      -0.084813245
      129 C2           15.361700000        21.437000000         6.125900000 C.3      22 pe      -0.084813245
      130 H4           17.457200000        21.859800000         6.342060000 H        22 pe       0.041986755
      131 H5           16.583000000        23.045500000         5.371630000 H        22 pe       0.041986755
      132 H6           14.966900000        21.223800000         7.113150000 H        22 pe       0.041986755
      133 H8           15.740100000        20.502900000         5.719550000 H        22 pe       0.041986755
      134 C1           14.197400000        21.978300000         5.276070000 C.3      23 pe      -0.084813245
      135 C2           14.396500000        22.025800000         3.755490000 C.3      23 pe      -0.084813245
      136 H4           13.937100000        22.972500000         5.625830000 H        23 pe       0.041986755
      137 H5           13.332100000        21.351000000         5.439820000 H        23 pe       0.041986755
      138 H6           15.089800000        22.821400000         3.488160000 H        23 pe       0.041986755
      139 H8           13.416100000        22.271600000         3.357220000 H        23 pe       0.041986755
      140 C1           14.868300000        20.692600000         3.144060000 C.3      24 pe      -0.084813245
      141 C2           14.224200000        20.402200000         1.781400000 C.3      24 pe      -0.084813245
      142 H4           14.583100000        19.872500000         3.796520000 H        24 pe       0.041986755
      143 H5           15.953800000        20.702000000         3.046330000 H        24 pe       0.041986755
      144 H6           13.148000000        20.548100000         1.859460000 H        24 pe       0.041986755
      145 H8           14.405400000        19.354600000         1.540390000 H        24 pe       0.041986755
      146 C1           14.822900000        21.253700000         0.649948000 C.3      25 pe      -0.084813245
      147 C2           13.836600000        21.391500000        -0.523800000 C.3      25 pe      -0.084813245
      148 H4           15.715600000        20.743900000         0.287546000 H        25 pe       0.041986755
      149 H5           15.120600000        22.235900000         1.010930000 H        25 pe       0.041986755
      150 H6           13.049300000        20.641500000        -0.448400000 H        25 pe       0.041986755
      151 H8           14.390400000        21.200200000        -1.442600000 H        25 pe       0.041986755
      152 C1           13.204200000        22.790400000        -0.649600000 C.3      26 pe      -0.084813245
      153 C2           12.403700000        23.214400000         0.594646000 C.3      26 pe      -0.084813245
      154 H4           12.543900000        22.763500000        -1.513700000 H        26 pe       0.041986755
      155 H5           13.991100000        23.521700000        -0.834900000 H        26 pe       0.041986755
      156 H6           13.106700000        23.393100000         1.400800000 H        26 pe       0.041986755
      157 H8           11.719500000        22.423300000         0.894081000 H        26 pe       0.041986755
      158 C1           11.646100000        24.539600000         0.427867000 C.3      27 pe      -0.084813245
      159 C2           10.468300000        24.528500000        -0.558800000 C.3      27 pe      -0.084813245
      160 H4           12.354300000        25.302600000         0.104730000 H        27 pe       0.041986755
      161 H5           11.265600000        24.830400000         1.406280000 H        27 pe       0.041986755
      162 H6           10.834900000        24.388500000        -1.574500000 H        27 pe       0.041986755
      163 H8           10.012900000        25.516500000        -0.500200000 H        27 pe       0.041986755
      164 C1            9.391570000        23.471900000        -0.251800000 C.3      28 pe      -0.084813245
      165 C2            8.107330000        23.902400000        -0.970200000 C.3      28 pe      -0.084813245
      166 H4            9.214270000        23.428000000         0.822140000 H        28 pe       0.041986755
      167 H5            9.712520000        22.497800000        -0.619900000 H        28 pe       0.041986755
      168 H6            8.353340000        24.127200000        -2.004700000 H        28 pe       0.041986755
      169 H8            7.753380000        24.799900000        -0.497500000 H        28 pe       0.041986755
      170 C1            6.945100000        22.904000000        -0.961500000 C.3      29 pe      -0.084813245
      171 C2            6.370130000        22.661800000         0.442700000 C.3      29 pe      -0.084813245
      172 H4            7.278480000        21.975300000        -1.414700000 H        29 pe       0.041986755
      173 H5            6.150280000        23.319800000        -1.574200000 H        29 pe       0.041986755
      174 H6            6.466520000        23.572500000         1.022200000 H        29 pe       0.041986755
      175 H8            6.946580000        21.901900000         0.942849000 H        29 pe       0.041986755
      176 C1            4.879130000        22.274100000         0.449850000 C.3      30 pe      -0.084813245
      177 C2            4.483270000        21.074700000        -0.437500000 C.3      30 pe      -0.084813245
      178 H4            4.311650000        23.135900000         0.103763000 H        30 pe       0.041986755
      179 H5            4.580010000        22.079900000         1.479940000 H        30 pe       0.041986755
      180 H6            5.165190000        20.945800000        -1.271700000 H        30 pe       0.041986755
      181 H8            3.504620000        21.313700000        -0.853400000 H        30 pe       0.041986755
      182 C1            4.321730000        19.739400000         0.310925000 C.3      31 pe      -0.084813245
      183 C2            5.616710000        19.143900000         0.885860000 C.3      31 pe      -0.084813245
      184 H4            3.879000000        19.014600000        -0.371800000 H        31 pe       0.041986755
      185 H5            3.623680000        19.889800000         1.134730000 H        31 pe       0.041986755
      186 H6            5.322260000        18.330400000         1.548030000 H        31 pe       0.041986755
      187 H8            6.114660000        19.895900000         1.485500000 H        31 pe       0.041986755
      188 C1            6.575050000        18.538900000        -0.161800000 C.3      32 pe      -0.084813245
      189 C2            8.027920000        19.049600000        -0.085100000 C.3      32 pe      -0.084813245
      190 H4            6.201050000        18.748700000        -1.162700000 H        32 pe       0.041986755
      191 H5            6.584730000        17.457800000        -0.025900000 H        32 pe       0.041986755
      192 H6            8.039350000        20.099600000        -0.347900000 H        32 pe       0.041986755
      193 H8            8.612720000        18.519000000        -0.835800000 H        32 pe       0.041986755
      194 C1            8.708240000        18.834800000         1.279470000 C.3      33 pe      -0.084813245
      195 C2            9.453460000        20.103800000         1.737210000 C.3      33 pe      -0.084813245
      196 H4            9.427650000        18.021400000         1.188340000 H        33 pe       0.041986755
      197 H5            7.965890000        18.544000000         2.009610000 H        33 pe       0.041986755
      198 H6            8.879950000        20.996400000         1.529580000 H        33 pe       0.041986755
      199 H8           10.385900000        20.164400000         1.176830000 H        33 pe       0.041986755
      200 C1            9.788410000        20.136900000         3.232960000 C.3      34 pe      -0.084813245
      201 C2            8.577070000        20.299500000         4.165470000 C.3      34 pe      -0.084813245
      202 H4           10.438500000        20.996500000         3.396480000 H        34 pe       0.041986755
      203 H5           10.339600000        19.253900000         3.492080000 H        34 pe       0.041986755
      204 H6            7.782690000        20.820900000         3.635480000 H        34 pe       0.041986755
      205 H8            8.915660000        20.926400000         4.983850000 H        34 pe       0.041986755
      206 C1            8.040030000        18.995100000         4.790740000 C.3      35 pe      -0.084813245
      207 C2            6.507970000        19.000900000         4.793390000 C.3      35 pe      -0.084813245
      208 H4            8.402510000        18.909700000         5.814570000 H        35 pe       0.041986755
      209 H5            8.370040000        18.130000000         4.224430000 H        35 pe       0.041986755
      210 H6            6.168520000        19.013900000         3.763100000 H        35 pe       0.041986755
      211 H8            6.137060000        19.896800000         5.278580000 H        35 pe       0.041986755
      212 C1            5.909390000        17.744700000         5.442980000 C.3      36 pe      -0.084813245
      213 C2            5.729680000        17.850800000         6.969050000 C.3      36 pe      -0.084813245
      214 H4            6.528180000        16.877000000         5.215640000 H        36 pe       0.041986755
      215 H5            4.935610000        17.593100000         4.978410000 H        36 pe       0.041986755
      216 H6            5.838160000        18.879600000         7.299290000 H        36 pe       0.041986755
      217 H8            6.485450000        17.240600000         7.460990000 H        36 pe       0.041986755
      218 C1            4.328410000        17.326600000         7.321030000 C.3      37 pe      -0.084813245
      219 C2            4.023960000        17.195400000         8.824520000 C.3      37 pe      -0.084813245
      220 H4            4.250260000        16.328100000         6.901490000 H        37 pe       0.041986755
      221 H5            3.572800000        17.953100000         6.849300000 H        37 pe       0.041986755
      222 H6            4.724070000        16.477900000         9.252060000 H        37 pe       0.041986755
      223 H8            3.021550000        16.781700000         8.927660000 H        37 pe       0.041986755
      224 C1            4.098390000        18.483400000         9.664440000 C.3      38 pe      -0.084813245
      225 C2            3.410020000        19.727500000         9.076710000 C.3      38 pe      -0.084813245
      226 H4            5.149860000        18.722400000         9.820390000 H        38 pe       0.041986755
      227 H5            3.656450000        18.276700000        10.638900000 H        38 pe       0.041986755
      228 H6            3.889300000        19.985400000         8.140750000 H        38 pe       0.041986755
      229 H8            3.565420000        20.539400000         9.779880000 H        38 pe       0.041986755
      230 C1            1.899510000        19.608900000         8.862220000 C.3      39 pe      -0.084813245
      231 C2            1.321770000        20.912900000         8.280580000 C.3      39 pe      -0.084813245
      232 H4            1.428240000        19.421000000         9.826500000 H        39 pe       0.041986755
      233 H5            1.682940000        18.782900000         8.191870000 H        39 pe       0.041986755
      234 H6            1.694360000        21.760100000         8.855230000 H        39 pe       0.041986755
      235 H8            0.238783000        20.872400000         8.391200000 H        39 pe       0.041986755
      236 C1            1.658040000        21.102800000         6.787340000 C.3      40 pe      -0.084813245
      237 C2            0.920450000        22.304000000         6.179460000 C.3      40 pe      -0.084813245
      238 H4            1.352780000        20.214900000         6.237240000 H        40 pe       0.041986755
      239 H5            2.726730000        21.241500000         6.638760000 H        40 pe       0.041986755
      240 H6           -0.133500000        22.269000000         6.453060000 H        40 pe       0.041986755
      241 H8            0.994108000        22.225200000         5.094800000 H        40 pe       0.041986755
      242 C1            1.542540000        23.648000000         6.588880000 C.3      41 pe      -0.084813245
      243 C2            0.553546000        24.496500000         7.398200000 C.3      41 pe      -0.084813245
      244 H4            1.800960000        24.179300000         5.672350000 H        41 pe       0.041986755
      245 H5            2.447830000        23.495400000         7.175590000 H        41 pe       0.041986755
      246 H6            0.293914000        23.982000000         8.322810000 H        41 pe       0.041986755
      247 H8           -0.346500000        24.634800000         6.808130000 H        41 pe       0.041986755
      248 C1            1.203040000        25.845000000         7.747370000 C.3      42 pe      -0.084813245
      249 C2            0.298889000        27.060900000         7.493970000 C.3      42 pe      -0.084813245
      250 H4            2.095420000        25.981600000         7.137140000 H        42 pe       0.041986755
      251 H5            1.508510000        25.822100000         8.791850000 H        42 pe       0.041986755
      252 H6           -0.444900000        26.853500000         6.729150000 H        42 pe       0.041986755
      253 H8            0.955548000        27.844200000         7.126610000 H        42 pe       0.041986755
      254 C1           -0.418200000        27.538500000         8.763960000 C.3      43 pe      -0.084813245
      255 C2           -1.412600000        28.680600000         8.480150000 C.3      43 pe      -0.084813245
      256 H4            0.310476000        27.860900000         9.501650000 H        43 pe       0.041986755
      257 H5           -0.979900000        26.700400000         9.176260000 H        43 pe       0.041986755
      258 H6           -1.929700000        28.927800000         9.407390000 H        43 pe       0.041986755
      259 H8           -2.156500000        28.313000000         7.773150000 H        43 pe       0.041986755
      260 C1           -0.806900000        29.971800000         7.894630000 C.3      44 pe      -0.084813245
      261 C2           -0.034000000        30.826600000         8.919220000 C.3      44 pe      -0.084813245
      262 H4           -1.646400000        30.570300000         7.556260000 H        44 pe       0.041986755
      263 H5           -0.204800000        29.756800000         7.016910000 H        44 pe       0.041986755
      264 H6            0.041391900        30.304300000         9.869180000 H        44 pe       0.041986755
      265 H8           -0.615300000        31.733800000         9.082820000 H        44 pe       0.041986755
      266 C1            1.366440000        31.258700000         8.441080000 C.3      45 pe      -0.084813245
      267 C2            2.467840000        30.269200000         8.858600000 C.3      45 pe      -0.084813245
      268 H4            1.593160000        32.242500000         8.851320000 H        45 pe       0.041986755
      269 H5            1.374360000        31.352900000         7.355300000 H        45 pe       0.041986755
      270 H6            3.346750000        30.477600000         8.249690000 H        45 pe       0.041986755
      271 H8            2.131810000        29.266900000         8.631070000 H        45 pe       0.041986755
      272 C1            2.888660000        30.402200000        10.338300000 C.3      46 pe      -0.084813245
      273 C2            2.632990000        29.168300000        11.231700000 C.3      46 pe      -0.084813245
      274 H4            2.343650000        31.230600000        10.789000000 H        46 pe       0.041986755
      275 H5            3.945920000        30.659600000        10.371000000 H        46 pe       0.041986755
      276 H6            1.557970000        29.013900000        11.297400000 H        46 pe       0.041986755
      277 H8            2.984320000        29.416900000        12.231900000 H        46 pe       0.041986755
      278 C1            3.270230000        27.825700000        10.810800000 C.3      47 pe      -0.084813245
      279 C2            4.803040000        27.796700000        10.799400000 C.3      47 pe      -0.084813245
      280 H4            2.934970000        27.548900000         9.816720000 H        47 pe       0.041986755
      281 H5            2.916610000        27.057800000        11.495800000 H        47 pe       0.041986755
      282 H6            5.175860000        28.678500000        10.288400000 H        47 pe       0.041986755
      283 H8            5.096130000        26.912900000        10.241800000 H        47 pe       0.041986755
      284 C1            5.413500000        27.622300000        12.193900000 C.3      48 pe      -0.084813245
      285 C2            6.666010000        28.482300000        12.443700000 C.3      48 pe      -0.084813245
      286 H4            5.705770000        26.578500000        12.292700000 H        48 pe       0.041986755
      287 H5            4.657350000        27.830100000        12.943400000 H        48 pe       0.041986755
      288 H6            6.807900000        29.224200000        11.659900000 H        48 pe       0.041986755
      289 H8            7.544150000        27.836600000        12.467600000 H        48 pe       0.041986755
      290 C1            6.538180000        29.229200000        13.776600000 C.3      49 pe      -0.084813245
      291 C2            6.714450000        28.285100000        14.977900000 C.3      49 pe      -0.084813245
      292 H4            5.582330000        29.749300000        13.810000000 H        49 pe       0.041986755
      293 H5            7.318750000        29.981100000        13.824400000 H        49 pe       0.041986755
      294 H6            7.750600000        28.356200000        15.309000000 H        49 pe       0.041986755
      295 H8            6.517740000        27.252000000        14.697100000 H        49 pe       0.041986755
      296 C1            5.799050000        28.670500000        16.148700000 C.3      50 pe      -0.084813245
      297 C2            4.361710000        28.170300000        15.941000000 C.3      50 pe      -0.084813245
      298 H4            5.798470000        29.753200000        16.276900000 H        50 pe       0.041986755
      299 H5            6.191770000        28.210700000        17.055300000 H        50 pe       0.041986755
      300 H6            3.902120000        28.660300000        15.085000000 H        50 pe       0.041986755
      301 H7            4.359770000        27.090800000        15.789000000 H        50 pe       0.041986755
      302 H8            3.771160000        28.403600000        16.822800000 H        50 pe       0.041986755
      303 C1           27.130400000        35.718700000        26.372400000 C.3      51 pe      -0.084813245
      304 C2           27.561500000        37.077200000        26.926000000 C.3      51 pe      -0.084813245
      305 H3           27.474900000        35.564000000        25.356600000 H        51 pe       0.041986755
      306 H4           27.550400000        34.934900000        26.995300000 H        51 pe       0.041986755
      307 H5           26.044700000        35.672700000        26.384600000 H        51 pe       0.041986755
      308 H6           27.977800000        36.912000000        27.919200000 H        51 pe       0.041986755
      309 H8           26.694600000        37.724400000        27.022700000 H        51 pe       0.041986755
      310 C1           28.627700000        37.757500000        26.060600000 C.3      52 pe      -0.084813245
      311 C2           28.074200000        38.611200000        24.901700000 C.3      52 pe      -0.084813245
      312 H4           29.338800000        37.018500000        25.699800000 H        52 pe       0.041986755
      313 H5           29.168700000        38.439900000        26.715000000 H        52 pe       0.041986755
      314 H6           28.931500000        39.050000000        24.395200000 H        52 pe       0.041986755
      315 H8           27.480500000        39.414700000        25.331900000 H        52 pe       0.041986755
      316 C1           27.212700000        37.912900000        23.835000000 C.3      53 pe      -0.084813245
      317 C2           28.093700000        37.038900000        22.926100000 C.3      53 pe      -0.084813245
      318 H4           26.761700000        38.693600000        23.229200000 H        53 pe       0.041986755
      319 H5           26.412400000        37.353400000        24.306100000 H        53 pe       0.041986755
      320 H6           28.795900000        36.470100000        23.527300000 H        53 pe       0.041986755
      321 H8           28.671400000        37.718300000        22.301100000 H        53 pe       0.041986755
      322 C1           27.407900000        36.031800000        21.985100000 C.3      54 pe      -0.084813245
      323 C2           25.999000000        35.523900000        22.333800000 C.3      54 pe      -0.084813245
      324 H4           28.062800000        35.164200000        21.970100000 H        54 pe       0.041986755
      325 H5           27.398600000        36.457600000        20.989300000 H        54 pe       0.041986755
      326 H6           25.284000000        36.336200000        22.383100000 H        54 pe       0.041986755
      327 H8           26.039700000        35.028800000        23.302800000 H        54 pe       0.041986755
      328 C1           25.540400000        34.488200000        21.292000000 C.3      55 pe      -0.084813245
      329 C2           24.838300000        35.107800000        20.047400000 C.3      55 pe      -0.084813245
      330 H4           24.841900000        33.826200000        21.796600000 H        55 pe       0.041986755
      331 H5           26.418600000        33.916000000        21.022700000 H        55 pe       0.041986755
      332 H6           25.201400000        36.122000000        20.041700000 H        55 pe       0.041986755
      333 H8           23.772100000        35.195200000        20.227600000 H        55 pe       0.041986755
      334 C1           25.193400000        34.626800000        18.578000000 C.3      56 pe      -0.084813245
      335 C2           24.445200000        32.164000000        16.672100000 C.3      56 pe      -0.084813245
      336 H4           26.264800000        34.780300000        18.786500000 H        56 pe       0.041986755
      337 H5           25.027500000        35.641600000        18.200000000 H        56 pe       0.041986755
      338 H6           24.344300000        32.366100000        15.602600000 H        56 pe       0.041986755
      339 H8           23.432400000        31.737100000        16.764100000 H        56 pe       0.041986755
      340 C1           25.073800000        30.750800000        16.335400000 C.3      57 pe      -0.084813245
      341 C2           26.234900000        30.656800000        15.321600000 C.3      57 pe      -0.084813245
      342 H4           24.257800000        30.290800000        15.786800000 H        57 pe       0.041986755
      343 H5           25.207300000        30.063300000        17.168400000 H        57 pe       0.041986755
      344 H6           26.011800000        31.272800000        14.450500000 H        57 pe       0.041986755
      345 H8           26.238700000        29.621500000        14.980700000 H        57 pe       0.041986755
      346 C1           27.681900000        30.957100000        15.758500000 C.3      58 pe      -0.084813245
      347 C2           27.977100000        31.062400000        17.260400000 C.3      58 pe      -0.084813245
      348 H4           28.031800000        31.858500000        15.257500000 H        58 pe       0.041986755
      349 H5           28.287300000        30.133400000        15.380900000 H        58 pe       0.041986755
      350 H6           29.059600000        30.988800000        17.358100000 H        58 pe       0.041986755
      351 H8           27.556200000        30.207900000        17.789600000 H        58 pe       0.041986755
      352 C1           27.582400000        32.399200000        17.921100000 C.3      59 pe      -0.084813245
      353 C2           26.047300000        32.563300000        18.213700000 C.3      59 pe      -0.084813245
      354 H4           28.085500000        33.233300000        17.440000000 H        59 pe       0.041986755
      355 H5           28.027200000        32.348600000        18.914400000 H        59 pe       0.041986755
      356 H6           26.299400000        32.729900000        19.261800000 H        59 pe       0.041986755
      357 H8           25.872100000        31.528400000        18.469200000 H        59 pe       0.041986755
      358 C1           23.576500000        34.213400000        17.019800000 C.3      60 pe      -0.084813245
      359 C2           23.034800000        34.659700000        15.585900000 C.3      60 pe      -0.084813245
      360 H4           23.203100000        35.116800000        17.526700000 H        60 pe       0.041986755
      361 H5           22.625700000        33.687600000        16.980300000 H        60 pe       0.041986755
      362 H6           23.716700000        35.068600000        14.851700000 H        60 pe       0.041986755
      363 H8           22.407300000        35.510300000        15.840100000 H        60 pe       0.041986755
      364 C1           22.032000000        33.701500000        14.891300000 C.3      61 pe      -0.084813245
      365 C2           21.963800000        33.871600000        13.373100000 C.3      61 pe      -0.084813245
      366 H4           21.037300000        33.928800000        15.262900000 H        61 pe       0.041986755
      367 H5           22.210200000        32.649400000        15.074200000 H        61 pe       0.041986755
      368 H6           21.884500000        34.921500000        13.118800000 H        61 pe       0.041986755
      369 H8           21.046200000        33.381100000        13.073500000 H        61 pe       0.041986755
      370 C1           23.160000000        33.249900000        12.629100000 C.3      62 pe      -0.084813245
      371 C2           22.898700000        33.090400000        11.123700000 C.3      62 pe      -0.084813245
      372 H4           23.441800000        32.287600000        13.045000000 H        62 pe       0.041986755
      373 H5           24.014000000        33.917100000        12.739700000 H        62 pe       0.041986755
      374 H6           23.829200000        32.729300000        10.692700000 H        62 pe       0.041986755
      375 H8           22.675800000        34.069200000        10.722100000 H        62 pe       0.041986755
      376 C1           21.798900000        32.103200000        10.692800000 C.3      63 pe      -0.084813245
      377 C2           20.823800000        32.667600000         9.644440000 C.3      63 pe      -0.084813245
      378 H4           21.222000000        31.784400000        11.541200000 H        63 pe       0.041986755
      379 H5           22.287300000        31.227600000        10.265800000 H        63 pe       0.041986755
      380 H6           20.223300000        31.845700000         9.255070000 H        63 pe       0.041986755
      381 H8           21.393300000        33.066300000         8.813640000 H        63 pe       0.041986755
      382 C1           19.872000000        33.748200000        10.196600000 C.3      64 pe      -0.084813245
      383 C2           18.647100000        33.095300000        10.844700000 C.3      64 pe      -0.084813245
      384 H4           19.528700000        34.365900000         9.367810000 H        64 pe       0.041986755
      385 H5           20.375500000        34.387800000        10.916200000 H        64 pe       0.041986755
      386 H6           18.941000000        32.145800000        11.286700000 H        64 pe       0.041986755
      387 H8           17.910800000        32.915800000        10.061100000 H        64 pe       0.041986755
      388 C1           18.029900000        33.960600000        11.953300000 C.3      65 pe      -0.084813245
      389 C2           16.726200000        33.278600000        12.403500000 C.3      65 pe      -0.084813245
      390 H4           17.809300000        34.958100000        11.579900000 H        65 pe       0.041986755
      391 H5           18.742400000        34.042500000        12.770000000 H        65 pe       0.041986755
      392 H6           16.738900000        32.282400000        11.994800000 H        65 pe       0.041986755
      393 H8           15.873700000        33.783600000        11.961300000 H        65 pe       0.041986755
      394 C1           16.577500000        33.080000000        13.922800000 C.3      66 pe      -0.084813245
      395 C2           15.326100000        33.683900000        14.591700000 C.3      66 pe      -0.084813245
      396 H4           17.467100000        33.403200000        14.450100000 H        66 pe       0.041986755
      397 H5           16.515100000        32.007700000        14.065800000 H        66 pe       0.041986755
      398 H6           15.521800000        33.762400000        15.660700000 H        66 pe       0.041986755
      399 H8           14.493900000        32.996700000        14.444500000 H        66 pe       0.041986755
      400 C1           14.909600000        35.056000000        14.045800000 C.3      67 pe      -0.084813245
      401 C2           14.321900000        35.985400000        15.109000000 C.3      67 pe      -0.084813245
      402 H4           14.145200000        34.881200000        13.293800000 H        67 pe       0.041986755
      403 H5           15.765200000        35.556800000        13.598500000 H        67 pe       0.041986755
      404 H6           15.091200000        36.262600000        15.811700000 H        67 pe       0.041986755
      405 H8           13.554900000        35.473400000        15.678500000 H        67 pe       0.041986755
      406 C1           13.769600000        37.244500000        14.412400000 C.3      68 pe      -0.084813245
      407 C2           13.271300000        38.237900000        15.462700000 C.3      68 pe      -0.084813245
      408 H4           12.949000000        36.971700000        13.750400000 H        68 pe       0.041986755
      409 H5           14.553400000        37.714600000        13.822300000 H        68 pe       0.041986755
      410 H6           14.105500000        38.493200000        16.112700000 H        68 pe       0.041986755
      411 H8           12.496400000        37.743100000        16.037700000 H        68 pe       0.041986755
      412 C1           12.691400000        39.519200000        14.843300000 C.3      69 pe      -0.084813245
      413 C2           11.789200000        40.281600000        15.830100000 C.3      69 pe      -0.084813245
      414 H4           12.083200000        39.248000000        13.981500000 H        69 pe       0.041986755
      415 H5           13.499000000        40.169400000        14.511300000 H        69 pe       0.041986755
      416 H6           10.987500000        39.626700000        16.163100000 H        69 pe       0.041986755
      417 H8           11.336000000        41.114500000        15.293600000 H        69 pe       0.041986755
      418 C1           12.547100000        40.869700000        17.034100000 C.3      70 pe      -0.084813245
      419 C2           11.856300000        40.599000000        18.387700000 C.3      70 pe      -0.084813245
      420 H4           12.569000000        41.947800000        16.889900000 H        70 pe       0.041986755
      421 H5           13.577800000        40.529100000        17.056300000 H        70 pe       0.041986755
      422 H6           10.814000000        40.907500000        18.307500000 H        70 pe       0.041986755
      423 H8           12.334200000        41.217900000        19.145700000 H        70 pe       0.041986755
      424 C1           11.898700000        39.140900000        18.884100000 C.3      71 pe      -0.084813245
      425 C2           13.278300000        38.754800000        19.443700000 C.3      71 pe      -0.084813245
      426 H4           11.599600000        38.462000000        18.092500000 H        71 pe       0.041986755
      427 H5           11.176700000        39.043900000        19.694800000 H        71 pe       0.041986755
      428 H6           13.269700000        38.917300000        20.519500000 H        71 pe       0.041986755
      429 H8           14.044400000        39.400900000        19.021300000 H        71 pe       0.041986755
      430 C1           13.676700000        37.303400000        19.114100000 C.3      72 pe      -0.084813245
      431 C2           12.909600000        36.212400000        19.883600000 C.3      72 pe      -0.084813245
      432 H4           14.741900000        37.203000000        19.285100000 H        72 pe       0.041986755
      433 H5           13.518500000        37.120100000        18.058400000 H        72 pe       0.041986755
      434 H6           13.080400000        35.260000000        19.380600000 H        72 pe       0.041986755
      435 H8           11.843500000        36.429200000        19.834600000 H        72 pe       0.041986755
      436 C1           13.309600000        36.060300000        21.362100000 C.3      73 pe      -0.084813245
      437 C2           14.693000000        35.412300000        21.551600000 C.3      73 pe      -0.084813245
      438 H4           12.577900000        35.405200000        21.834500000 H        73 pe       0.041986755
      439 H5           13.262900000        37.023400000        21.859400000 H        73 pe       0.041986755
      440 H6           15.208600000        35.325600000        20.607900000 H        73 pe       0.041986755
      441 H8           14.529900000        34.401400000        21.924600000 H        73 pe       0.041986755
      442 C1           15.578300000        36.147300000        22.572900000 C.3      74 pe      -0.084813245
      443 C2           16.072800000        37.547400000        22.151200000 C.3      74 pe      -0.084813245
      444 H4           16.439700000        35.519400000        22.798900000 H        74 pe       0.041986755
      445 H5           14.992500000        36.245200000        23.477300000 H        74 pe       0.041986755
      446 H6           15.962800000        38.227100000        22.991700000 H        74 pe       0.041986755
      447 H8           15.480800000        37.934100000        21.331700000 H        74 pe       0.041986755
      448 C1           17.552100000        37.526500000        21.747500000 C.3      75 pe      -0.084813245
      449 C2           17.966300000        38.822600000        21.041000000 C.3      75 pe      -0.084813245
      450 H4           17.711700000        36.710300000        21.058700000 H        75 pe       0.041986755
      451 H5           18.174000000        37.373600000        22.628400000 H        75 pe       0.041986755
      452 H6           17.767400000        39.679700000        21.684500000 H        75 pe       0.041986755
      453 H8           17.388100000        38.912400000        20.121000000 H        75 pe       0.041986755
      454 C1           19.467800000        38.758500000        20.718600000 C.3      76 pe      -0.084813245
      455 C2           19.889700000        39.850800000        19.724700000 C.3      76 pe      -0.084813245
      456 H4           19.704800000        37.781300000        20.305300000 H        76 pe       0.041986755
      457 H5           20.034200000        38.885300000        21.640400000 H        76 pe       0.041986755
      458 H6           20.386800000        40.644000000        20.280500000 H        76 pe       0.041986755
      459 H8           19.018700000        40.264000000        19.220700000 H        76 pe       0.041986755
      460 C1           20.850200000        39.282600000        18.670400000 C.3      77 pe      -0.084813245
      461 C2           21.197100000        40.359600000        17.634500000 C.3      77 pe      -0.084813245
      462 H4           20.380300000        38.446100000        18.167500000 H        77 pe       0.041986755
      463 H5           21.747900000        38.929200000        19.158700000 H        77 pe       0.041986755
      464 H6           21.354400000        41.293500000        18.161200000 H        77 pe       0.041986755
      465 H8           20.363000000        40.488900000        16.956700000 H        77 pe       0.041986755
      466 C1           22.466900000        40.094100000        16.815900000 C.3      78 pe      -0.084813245
      467 C2           22.490500000        38.803800000        15.986400000 C.3      78 pe      -0.084813245
      468 H4           23.313000000        40.081700000        17.482000000 H        78 pe       0.041986755
      469 H5           22.611900000        40.937600000        16.154800000 H        78 pe       0.041986755
      470 H6           21.981100000        37.989400000        16.492200000 H        78 pe       0.041986755
      471 H8           23.527200000        38.533500000        15.835900000 H        78 pe       0.041986755
      472 C1           21.927500000        39.017500000        14.589000000 C.3      79 pe      -0.084813245
      473 C2           21.884600000        37.695300000        13.828000000 C.3      79 pe      -0.084813245
      474 H4           22.608900000        39.662900000        14.058600000 H        79 pe       0.041986755
      475 H5           20.948300000        39.478800000        14.646600000 H        79 pe       0.041986755
      476 H6           21.093900000        37.067300000        14.226900000 H        79 pe       0.041986755
      477 H8           22.841500000        37.193800000        13.955900000 H        79 pe       0.041986755
      478 C1           21.688100000        37.901800000        12.324700000 C.3      80 pe      -0.084813245
      479 C2           20.332800000        38.524900000        11.983400000 C.3      80 pe      -0.084813245
      480 H4           21.731100000        36.924600000        11.854900000 H        80 pe       0.041986755
      481 H5           22.498500000        38.516000000        11.938400000 H        80 pe       0.041986755
      482 H6           20.250700000        39.533900000        12.379800000 H        80 pe       0.041986755
      483 H8           19.552800000        37.907100000        12.427200000 H        80 pe       0.041986755
      484 C1           20.104600000        38.536100000        10.468400000 C.3      81 pe      -0.084813245
      485 C2           21.016100000        39.462800000         9.639420000 C.3      81 pe      -0.084813245
      486 H4           19.077300000        38.802000000        10.287500000 H        81 pe       0.041986755
      487 H5           20.208400000        37.523300000        10.102900000 H        81 pe       0.041986755
      488 H6           20.627400000        39.432100000         8.625730000 H        81 pe       0.041986755
      489 H8           22.030300000        39.069700000         9.639260000 H        81 pe       0.041986755
      490 C1           21.076700000        40.922500000        10.120400000 C.3      82 pe      -0.084813245
      491 C2           21.708900000        41.899600000         9.104980000 C.3      82 pe      -0.084813245
      492 H4           21.708700000        40.942400000        11.002500000 H        82 pe       0.041986755
      493 H5           20.091800000        41.274900000        10.412900000 H        82 pe       0.041986755
      494 H6           22.746900000        41.606400000         8.952100000 H        82 pe       0.041986755
      495 H8           21.704600000        42.888800000         9.561950000 H        82 pe       0.041986755
      496 C1           21.040000000        42.022700000         7.718900000 C.3      83 pe      -0.084813245
      497 C2           19.531000000        42.297600000         7.814010000 C.3      83 pe      -0.084813245
      498 H4           21.223600000        41.120000000         7.140000000 H        83 pe       0.041986755
      499 H5           21.511100000        42.857800000         7.200250000 H        83 pe       0.041986755
      500 H6           19.380300000        43.223800000         8.368760000 H        83 pe       0.041986755
      501 H8           19.058400000        41.488800000         8.351380000 H        83 pe       0.041986755
      502 C1           18.838200000        42.433900000         6.448680000 C.3      84 pe      -0.084813245
      503 C2           18.668300000        41.089100000         5.712480000 C.3      84 pe      -0.084813245
      504 H4           19.432500000        43.109300000         5.836860000 H        84 pe       0.041986755
      505 H5           17.858100000        42.880300000         6.607450000 H        84 pe       0.041986755
      506 H6           18.871800000        40.268000000         6.396380000 H        84 pe       0.041986755
      507 H8           19.394000000        41.070500000         4.900470000 H        84 pe       0.041986755
      508 C1           17.256100000        40.878700000         5.129030000 C.3      85 pe      -0.084813245
      509 C2           17.170000000        39.593700000         4.286390000 C.3      85 pe      -0.084813245
      510 H4           16.985300000        41.710900000         4.489020000 H        85 pe       0.041986755
      511 H5           16.529300000        40.841400000         5.926860000 H        85 pe       0.041986755
      512 H6           18.159200000        39.160100000         4.164810000 H        85 pe       0.041986755
      513 H8           16.799900000        39.869900000         3.302290000 H        85 pe       0.041986755
      514 C1           16.211400000        38.527900000         4.843080000 C.3      86 pe      -0.084813245
      515 C2           16.924000000        37.597000000         5.831880000 C.3      86 pe      -0.084813245
      516 H4           15.865300000        37.926200000         4.003110000 H        86 pe       0.041986755
      517 H5           15.343100000        38.990200000         5.311220000 H        86 pe       0.041986755
      518 H6           17.286500000        38.169300000         6.683320000 H        86 pe       0.041986755
      519 H8           17.763200000        37.128600000         5.325610000 H        86 pe       0.041986755
      520 C1           15.974300000        36.487400000         6.299920000 C.3      87 pe      -0.084813245
      521 C2           16.670200000        35.551500000         7.302370000 C.3      87 pe      -0.084813245
      522 H4           15.675400000        35.895100000         5.435380000 H        87 pe       0.041986755
      523 H5           15.085900000        36.933900000         6.743200000 H        87 pe       0.041986755
      524 H6           17.731500000        35.486800000         7.065890000 H        87 pe       0.041986755
      525 H8           16.238400000        34.554200000         7.218100000 H        87 pe       0.041986755
      526 C1           16.514400000        36.040900000         8.746180000 C.3      88 pe      -0.084813245
      527 C2           15.187300000        35.530900000         9.328870000 C.3      88 pe      -0.084813245
      528 H4           16.575300000        37.125100000         8.773170000 H        88 pe       0.041986755
      529 H5           17.332300000        35.637800000         9.336420000 H        88 pe       0.041986755
      530 H6           15.307900000        34.474100000         9.564630000 H        88 pe       0.041986755
      531 H8           14.396700000        35.625300000         8.595310000 H        88 pe       0.041986755
      532 C1           14.779800000        36.260300000        10.614000000 C.3      89 pe      -0.084813245
      533 C2           14.177500000        37.653100000        10.384800000 C.3      89 pe      -0.084813245
      534 H4           15.666800000        36.377700000        11.234000000 H        89 pe       0.041986755
      535 H5           14.063500000        35.642900000        11.144300000 H        89 pe       0.041986755
      536 H6           14.648100000        38.099300000         9.519180000 H        89 pe       0.041986755
      537 H8           14.414600000        38.248600000        11.263400000 H        89 pe       0.041986755
      538 C1           12.653700000        37.709400000        10.204400000 C.3      90 pe      -0.084813245
      539 C2           12.275800000        37.918200000         8.725140000 C.3      90 pe      -0.084813245
      540 H4           12.293100000        38.558700000        10.778000000 H        90 pe       0.041986755
      541 H5           12.189000000        36.816600000        10.610300000 H        90 pe       0.041986755
      542 H6           12.774800000        37.179000000         8.107040000 H        90 pe       0.041986755
      543 H8           12.605700000        38.900200000         8.402490000 H        90 pe       0.041986755
      544 C1           10.767800000        37.781700000         8.477870000 C.3      91 pe      -0.084813245
      545 C2            9.999060000        39.061000000         8.818270000 C.3      91 pe      -0.084813245
      546 H4           10.367500000        36.978800000         9.093920000 H        91 pe       0.041986755
      547 H5           10.600900000        37.519900000         7.433640000 H        91 pe       0.041986755
      548 H6           10.311300000        39.409700000         9.793710000 H        91 pe       0.041986755
      549 H8            8.960560000        38.788400000         8.879470000 H        91 pe       0.041986755
      550 C1           10.143400000        40.165000000         7.759220000 C.3      92 pe      -0.084813245
      551 C2            9.025450000        41.226200000         7.790740000 C.3      92 pe      -0.084813245
      552 H4           10.100600000        39.695800000         6.780050000 H        92 pe       0.041986755
      553 H5           11.111000000        40.652300000         7.858490000 H        92 pe       0.041986755
      554 H6            8.044310000        40.769300000         7.808430000 H        92 pe       0.041986755
      555 H8            9.124210000        41.784000000         6.862080000 H        92 pe       0.041986755
      556 C1            9.144500000        42.250800000         8.922890000 C.3      93 pe      -0.084813245
      557 C2            8.531760000        41.850000000        10.273700000 C.3      93 pe      -0.084813245
      558 H4            8.661370000        43.176400000         8.627730000 H        93 pe       0.041986755
      559 H5           10.188500000        42.463800000         9.017520000 H        93 pe       0.041986755
      560 H6            8.579980000        40.781900000        10.453800000 H        93 pe       0.041986755
      561 H8            7.482870000        42.145000000        10.260400000 H        93 pe       0.041986755
      562 C1            9.225730000        42.618100000        11.408600000 C.3      94 pe      -0.084813245
      563 C2           10.323200000        41.822300000        12.141100000 C.3      94 pe      -0.084813245
      564 H4            8.467490000        42.879400000        12.143400000 H        94 pe       0.041986755
      565 H5            9.620830000        43.545300000        11.017600000 H        94 pe       0.041986755
      566 H6            9.911940000        40.853100000        12.422400000 H        94 pe       0.041986755
      567 H8           10.564500000        42.349500000        13.062300000 H        94 pe       0.041986755
      568 C1           11.632100000        41.562800000        11.369900000 C.3      95 pe      -0.084813245
      569 C2           12.669300000        42.686900000        11.401200000 C.3      95 pe      -0.084813245
      570 H4           11.463200000        41.262500000        10.348100000 H        95 pe       0.041986755
      571 H5           12.108700000        40.723800000        11.872600000 H        95 pe       0.041986755
      572 H6           13.597500000        42.221900000        11.090100000 H        95 pe       0.041986755
      573 H8           12.808600000        42.966400000        12.435500000 H        95 pe       0.041986755
      574 C1           12.484400000        43.891200000        10.437300000 C.3      96 pe      -0.084813245
      575 C2           12.040900000        45.237300000        11.002400000 C.3      96 pe      -0.084813245
      576 H4           11.845900000        43.644200000         9.607160000 H        96 pe       0.041986755
      577 H5           13.457500000        44.110000000        10.016200000 H        96 pe       0.041986755
      578 H6           11.011600000        45.245300000        11.344100000 H        96 pe       0.041986755
      579 H8           12.149100000        45.980560000        10.211900000 H        96 pe       0.041986755
      580 C1           13.003900000        45.587825000        12.118700000 C.3      97 pe      -0.084813245
      581 C2           12.325600000        45.415266900        13.481000000 C.3      97 pe      -0.084813245
      582 H4           13.336000000        46.599110000        11.980600000 H        97 pe       0.041986755
      583 H5           13.876600000        44.970600000        12.022000000 H        97 pe       0.041986755
      584 H6           11.597700000        44.608100000        13.450400000 H        97 pe       0.041986755
      585 H8           11.767700000        46.323721000        13.664300000 H        97 pe       0.041986755
      586 C1           13.267800000        45.112700000        14.660400000 C.3      98 pe      -0.084813245
      587 C2           14.747900000        45.479411000        14.500500000 C.3      98 pe      -0.084813245
      588 H4           13.182200000        44.055900000        14.913000000 H        98 pe       0.041986755
      589 H5           12.906300000        45.682902000        15.502600000 H        98 pe       0.041986755
      590 H6           15.129200000        45.785852000        15.471800000 H        98 pe       0.041986755
      591 H8           14.877000000        46.298426000        13.813400000 H        98 pe       0.041986755
      592 C1           15.547100000        44.259700000        14.051200000 C.3      99 pe      -0.084813245
      593 C2           16.854800000        44.595600000        13.325900000 C.3      99 pe      -0.084813245
      594 H4           14.952800000        43.614100000        13.413700000 H        99 pe       0.041986755
      595 H5           15.784800000        43.715800000        14.959100000 H        99 pe       0.041986755
      596 H6           17.390200000        43.658000000        13.244800000 H        99 pe       0.041986755
      597 H8           17.431900000        45.296500000        13.924700000 H        99 pe       0.041986755
      598 C1           16.710100000        45.135100000        11.895900000 C.3     100 pe      -0.084813245
      599 C2           18.080100000        45.150700000        11.210700000 C.3     100 pe      -0.084813245
      600 H4           16.308500000        46.146838000        11.909000000 H       100 pe       0.041986755
      601 H5           16.055400000        44.488200000        11.316000000 H       100 pe       0.041986755
      602 H6           18.773100000        45.772324000        11.776500000 H       100 pe       0.041986755
      603 H7           18.475600000        44.137000000        11.141900000 H       100 pe       0.041986755
      604 H8           17.967500000        45.555489000        10.206000000 H       100 pe       0.041986755
      605 C1            8.593890000         1.611450000        14.891700000 C.3     101 pe      -0.084813245
      606 C2            9.528680000         0.713136000        15.710000000 C.3     101 pe      -0.084813245
      607 H3            7.551360000         1.365050000        15.088300000 H       101 pe       0.041986755
      608 H4            8.772150000         2.654120000        15.155200000 H       101 pe       0.041986755
      609 H5            8.802960000         1.471560000        13.831300000 H       101 pe       0.041986755
      610 H6           10.527600000         1.111720000        15.580700000 H       101 pe       0.041986755
      611 H8            9.487890000        -0.309900000        15.340500000 H       101 pe       0.041986755
      612 C1            9.159660000         0.770235000        17.196600000 C.3     102 pe      -0.084813245
      613 C2            9.935300000        -0.156800000        18.144200000 C.3     102 pe      -0.084813245
      614 H4            8.099730000         0.554031000        17.311900000 H       102 pe       0.041986755
      615 H5            9.359620000         1.782730000        17.524000000 H       102 pe       0.041986755
      616 H6            9.485930000        -1.141000000        18.177900000 H       102 pe       0.041986755
      617 H8            9.858580000         0.277130000        19.139800000 H       102 pe       0.041986755
      618 C1           11.406700000        -0.298400000        17.758000000 C.3     103 pe      -0.084813245
      619 C2           12.211600000        -0.813200000        18.946400000 C.3     103 pe      -0.084813245
      620 H4           11.773500000         0.685421000        17.488300000 H       103 pe       0.041986755
      621 H5           11.499000000        -0.994800000        16.926700000 H       103 pe       0.041986755
      622 H6           11.826900000        -1.786600000        19.240500000 H       103 pe       0.041986755
      623 H8           12.037900000        -0.118800000        19.748000000 H       103 pe       0.041986755
      624 C1           13.723600000        -0.927400000        18.680500000 C.3     104 pe      -0.084813245
      625 C2           14.446700000         0.418691000        18.515900000 C.3     104 pe      -0.084813245
      626 H4           13.878500000        -1.503300000        17.769800000 H       104 pe       0.041986755
      627 H5           14.185400000        -1.469300000        19.503800000 H       104 pe       0.041986755
      628 H6           14.016000000         0.951995000        17.675100000 H       104 pe       0.041986755
      629 H8           15.484000000         0.197424000        18.264900000 H       104 pe       0.041986755
      630 C1           14.462200000         1.300460000        19.780500000 C.3     105 pe      -0.084813245
      631 C2           14.061400000         2.749490000        19.488700000 C.3     105 pe      -0.084813245
      632 H4           15.480500000         1.308440000        20.149800000 H       105 pe       0.041986755
      633 H5           13.834300000         0.908942000        20.568500000 H       105 pe       0.041986755
      634 H6           14.331200000         2.982630000        18.468800000 H       105 pe       0.041986755
      635 H8           14.616600000         3.407760000        20.134800000 H       105 pe       0.041986755
      636 C1           12.589000000         3.058390000        19.770200000 C.3     106 pe      -0.084813245
      637 C2           12.295600000         4.551210000        19.522500000 C.3     106 pe      -0.084813245
      638 H4           12.383000000         2.853480000        20.820900000 H       106 pe       0.041986755
      639 H5           11.939700000         2.426880000        19.171900000 H       106 pe       0.041986755
      640 H6           12.771700000         5.121420000        20.318300000 H       106 pe       0.041986755
      641 H8           11.225900000         4.710770000        19.609200000 H       106 pe       0.041986755
      642 C1           12.787700000         5.144200000        18.185400000 C.3     107 pe      -0.084813245
      643 C2           12.291200000         4.408220000        16.929700000 C.3     107 pe      -0.084813245
      644 H4           13.874000000         5.199750000        18.180100000 H       107 pe       0.041986755
      645 H5           12.414800000         6.166130000        18.132900000 H       107 pe       0.041986755
      646 H6           11.452500000         4.980200000        16.543800000 H       107 pe       0.041986755
      647 H8           11.933000000         3.409930000        17.158200000 H       107 pe       0.041986755
      648 C1           13.390200000         4.282000000        15.857400000 C.3     108 pe      -0.084813245
      649 C2           12.776300000         3.604730000        14.632800000 C.3     108 pe      -0.084813245
      650 H4           14.192900000         3.643120000        16.216700000 H       108 pe       0.041986755
      651 H5           13.802500000         5.252270000        15.604100000 H       108 pe       0.041986755
      652 H6           11.743400000         3.906120000        14.519700000 H       108 pe       0.041986755
      653 H8           12.785100000         2.550820000        14.856600000 H       108 pe       0.041986755
      654 C1           13.532800000         3.817060000        13.312300000 C.3     109 pe      -0.084813245
      655 C2           12.580200000         3.740110000        12.105800000 C.3     109 pe      -0.084813245
      656 H4           14.243300000         3.010270000        13.208700000 H       109 pe       0.041986755
      657 H5           14.121000000         4.725720000        13.293700000 H       109 pe       0.041986755
      658 H6           11.808200000         2.992580000        12.275300000 H       109 pe       0.041986755
      659 H8           13.183700000         3.425900000        11.254200000 H       109 pe       0.041986755
      660 C1           11.909400000         5.033270000        11.651700000 C.3     110 pe      -0.084813245
      661 C2           10.709100000         5.530870000        12.476700000 C.3     110 pe      -0.084813245
      662 H4           11.504500000         4.796950000        10.669800000 H       110 pe       0.041986755
      663 H5           12.663000000         5.788100000        11.511900000 H       110 pe       0.041986755
      664 H6           10.152900000         4.668760000        12.841500000 H       110 pe       0.041986755
      665 H8           10.062900000         6.045560000        11.771800000 H       110 pe       0.041986755
      666 C1           10.922100000         6.509740000        13.652000000 C.3     111 pe      -0.084813245
      667 C2           12.265500000         7.227500000        13.760300000 C.3     111 pe      -0.084813245
      668 H4           10.712700000         5.993950000        14.582800000 H       111 pe       0.041986755
      669 H5           10.186100000         7.298810000        13.529400000 H       111 pe       0.041986755
      670 H6           12.306900000         7.974400000        12.981700000 H       111 pe       0.041986755
      671 H8           13.082900000         6.547920000        13.651500000 H       111 pe       0.041986755
      672 C1           12.443200000         7.914260000        15.108800000 C.3     112 pe      -0.084813245
      673 C2           13.529800000         8.981050000        14.990800000 C.3     112 pe      -0.084813245
      674 H4           12.692700000         7.209980000        15.892900000 H       112 pe       0.041986755
      675 H5           11.509000000         8.409320000        15.369000000 H       112 pe       0.041986755
      676 H6           13.490300000         9.562150000        15.893900000 H       112 pe       0.041986755
      677 H8           13.259200000         9.597590000        14.162400000 H       112 pe       0.041986755
      678 C1           15.001600000         8.589950000        14.870300000 C.3     113 pe      -0.084813245
      679 C2           15.498700000         8.225470000        13.462800000 C.3     113 pe      -0.084813245
      680 H4           15.166600000         7.778320000        15.564300000 H       113 pe       0.041986755
      681 H5           15.559900000         9.466500000        15.186500000 H       113 pe       0.041986755
      682 H6           14.976800000         8.851310000        12.744600000 H       113 pe       0.041986755
      683 H8           15.269500000         7.184110000        13.251800000 H       113 pe       0.041986755
      684 C1           17.005100000         8.447920000        13.210100000 C.3     114 pe      -0.084813245
      685 C2           18.007700000         8.252070000        14.360900000 C.3     114 pe      -0.084813245
      686 H4           17.132600000         9.476680000        12.878300000 H       114 pe       0.041986755
      687 H5           17.295600000         7.794830000        12.389700000 H       114 pe       0.041986755
      688 H6           17.981200000         9.135280000        14.980600000 H       114 pe       0.041986755
      689 H8           18.995600000         8.244050000        13.911200000 H       114 pe       0.041986755
      690 C1           17.845200000         6.944710000        15.165700000 C.3     115 pe      -0.084813245
      691 C2           18.125800000         7.015900000        16.678100000 C.3     115 pe      -0.084813245
      692 H4           18.564600000         6.239640000        14.761400000 H       115 pe       0.041986755
      693 H5           16.868400000         6.509280000        15.017400000 H       115 pe       0.041986755
      694 H6           19.198200000         7.149600000        16.802900000 H       115 pe       0.041986755
      695 H8           17.856900000         6.061950000        17.099200000 H       115 pe       0.041986755
      696 C1           17.410000000         8.085030000        17.517700000 C.3     116 pe      -0.084813245
      697 C2           16.184300000         7.662820000        18.329300000 C.3     116 pe      -0.084813245
      698 H4           17.085700000         8.896070000        16.899500000 H       116 pe       0.041986755
      699 H5           18.149200000         8.426740000        18.232400000 H       116 pe       0.041986755
      700 H6           16.518300000         7.130790000        19.218500000 H       116 pe       0.041986755
      701 H8           15.567300000         6.990430000        17.736000000 H       116 pe       0.041986755
      702 C1           15.317400000         8.879220000        18.748100000 C.3     117 pe      -0.084813245
      703 C2           16.048400000        10.196600000        19.121600000 C.3     117 pe      -0.084813245
      704 H4           14.751400000         8.567600000        19.625600000 H       117 pe       0.041986755
      705 H5           14.598000000         9.082170000        17.960300000 H       117 pe       0.041986755
      706 H6           17.079300000         9.998130000        19.371500000 H       117 pe       0.041986755
      707 H8           15.575600000        10.582000000        20.024200000 H       117 pe       0.041986755
      708 C1           15.962800000        11.320100000        18.059000000 C.3     118 pe      -0.084813245
      709 C2           17.226300000        12.205100000        17.977600000 C.3     118 pe      -0.084813245
      710 H4           15.130600000        11.964500000        18.340300000 H       118 pe       0.041986755
      711 H5           15.754000000        10.915600000        17.073100000 H       118 pe       0.041986755
      712 H6           17.790600000        12.124500000        18.903500000 H       118 pe       0.041986755
      713 H8           16.909400000        13.239800000        17.869800000 H       118 pe       0.041986755
      714 C1           18.104600000        11.847500000        16.760200000 C.3     119 pe      -0.084813245
      715 C2           19.526400000        12.437900000        16.830200000 C.3     119 pe      -0.084813245
      716 H4           17.626100000        12.205000000        15.851500000 H       119 pe       0.041986755
      717 H5           18.169100000        10.780000000        16.690300000 H       119 pe       0.041986755
      718 H6           19.842300000        12.548500000        17.862300000 H       119 pe       0.041986755
      719 H8           19.481200000        13.423800000        16.387100000 H       119 pe       0.041986755
      720 C1           20.590800000        11.649200000        16.035900000 C.3     120 pe      -0.084813245
      721 C2           21.561900000        10.838600000        16.919500000 C.3     120 pe      -0.084813245
      722 H4           21.189500000        12.377200000        15.489200000 H       120 pe       0.041986755
      723 H5           20.114400000        10.993200000        15.306500000 H       120 pe       0.041986755
      724 H6           21.903300000        11.437400000        17.760600000 H       120 pe       0.041986755
      725 H8           22.429500000        10.562100000        16.320000000 H       120 pe       0.041986755
      726 C1           20.887900000         9.547120000        17.386400000 C.3     121 pe      -0.084813245
      727 C2           21.457600000         8.880830000        18.652900000 C.3     121 pe      -0.084813245
      728 H4           20.945500000         8.844770000        16.560600000 H       121 pe       0.041986755
      729 H5           19.846800000         9.728640000        17.546400000 H       121 pe       0.041986755
      730 H6           22.495900000         8.616640000        18.473700000 H       121 pe       0.041986755
      731 H8           20.894600000         7.959320000        18.800600000 H       121 pe       0.041986755
      732 C1           21.415000000         9.644870000        19.990600000 C.3     122 pe      -0.084813245
      733 C2           20.295800000        10.684800000        20.169400000 C.3     122 pe      -0.084813245
      734 H4           22.370100000        10.151300000        20.126000000 H       122 pe       0.041986755
      735 H5           21.323500000         8.887640000        20.763700000 H       122 pe       0.041986755
      736 H6           19.440900000        10.462900000        19.547600000 H       122 pe       0.041986755
      737 H8           20.697700000        11.655500000        19.887400000 H       122 pe       0.041986755
      738 C1           19.794600000        10.806400000        21.610900000 C.3     123 pe      -0.084813245
      739 C2           18.848000000         9.656330000        22.003200000 C.3     123 pe      -0.084813245
      740 H4           19.253900000        11.749700000        21.680700000 H       123 pe       0.041986755
      741 H5           20.647900000        10.838700000        22.287100000 H       123 pe       0.041986755
      742 H6           19.417700000         8.847130000        22.435400000 H       123 pe       0.041986755
      743 H8           18.360000000         9.253470000        21.121400000 H       123 pe       0.041986755
      744 C1           17.734100000        10.104600000        22.964500000 C.3     124 pe      -0.084813245
      745 C2           18.193000000        10.711600000        24.304700000 C.3     124 pe      -0.084813245
      746 H4           17.092000000         9.250840000        23.162800000 H       124 pe       0.041986755
      747 H5           17.133400000        10.854500000        22.449600000 H       124 pe       0.041986755
      748 H6           17.420100000        11.423900000        24.590600000 H       124 pe       0.041986755
      749 H8           19.114200000        11.276000000        24.195500000 H       124 pe       0.041986755
      750 C1           18.303000000         9.706600000        25.468600000 C.3     125 pe      -0.084813245
      751 C2           19.411800000         8.650050000        25.380700000 C.3     125 pe      -0.084813245
      752 H4           17.359200000         9.169450000        25.551400000 H       125 pe       0.041986755
      753 H5           18.452200000        10.273300000        26.387300000 H       125 pe       0.041986755
      754 H6           19.255300000         8.028860000        24.507300000 H       125 pe       0.041986755
      755 H8           19.307300000         8.018390000        26.260100000 H       125 pe       0.041986755
      756 C1           20.835900000         9.225380000        25.401000000 C.3     126 pe      -0.084813245
      757 C2           21.856900000         8.103700000        25.174700000 C.3     126 pe      -0.084813245
      758 H4           21.012800000         9.657320000        26.385800000 H       126 pe       0.041986755
      759 H5           20.976500000         9.999930000        24.652300000 H       126 pe       0.041986755
      760 H6           21.444300000         7.161710000        25.533600000 H       126 pe       0.041986755
      761 H8           22.737500000         8.350590000        25.760400000 H       126 pe       0.041986755
      762 C1           22.297900000         7.978710000        23.706600000 C.3     127 pe      -0.084813245
      763 C2           22.530000000         6.524840000        23.273100000 C.3     127 pe      -0.084813245
      764 H4           23.229400000         8.530860000        23.583600000 H       127 pe       0.041986755
      765 H5           21.556000000         8.412850000        23.051100000 H       127 pe       0.041986755
      766 H6           23.035600000         5.978300000        24.062300000 H       127 pe       0.041986755
      767 H8           23.171000000         6.531760000        22.392100000 H       127 pe       0.041986755
      768 C1           21.212700000         5.833890000        22.891700000 C.3     128 pe      -0.084813245
      769 C2           21.290800000         4.312560000        23.078200000 C.3     128 pe      -0.084813245
      770 H4           21.020500000         6.039540000        21.838200000 H       128 pe       0.041986755
      771 H5           20.383500000         6.229000000        23.470400000 H       128 pe       0.041986755
      772 H6           22.276100000         3.975280000        22.807400000 H       128 pe       0.041986755
      773 H8           20.598600000         3.869020000        22.384600000 H       128 pe       0.041986755
      774 C1           20.960700000         3.847830000        24.507900000 C.3     129 pe      -0.084813245
      775 C2           20.616300000         2.344770000        24.664900000 C.3     129 pe      -0.084813245
      776 H4           20.093200000         4.408310000        24.849000000 H       129 pe       0.041986755
      777 H5           21.799600000         4.092150000        25.155700000 H       129 pe       0.041986755
      778 H6           19.584000000         2.179310000        24.383300000 H       129 pe       0.041986755
      779 H8           20.690500000         2.070960000        25.711400000 H       129 pe       0.041986755
      780 C1           21.474300000         1.347330000        23.882100000 C.3     130 pe      -0.084813245
      781 C2           22.878000000         1.241530000        24.487300000 C.3     130 pe      -0.084813245
      782 H4           21.513000000         1.621770000        22.831600000 H       130 pe       0.041986755
      783 H5           20.997800000         0.369610000        23.958800000 H       130 pe       0.041986755
      784 H6           22.805200000         0.761833000        25.462500000 H       130 pe       0.041986755
      785 H8           23.314400000         2.226050000        24.618200000 H       130 pe       0.041986755
      786 C1           23.765100000         0.378563000        23.586500000 C.3     131 pe      -0.084813245
      787 C2           24.940500000         1.155740000        22.976000000 C.3     131 pe      -0.084813245
      788 H4           23.164800000        -0.072600000        22.804200000 H       131 pe       0.041986755
      789 H5           24.179500000        -0.422900000        24.198200000 H       131 pe       0.041986755
      790 H6           25.579700000         0.428484000        22.476500000 H       131 pe       0.041986755
      791 H8           25.492200000         1.604020000        23.787800000 H       131 pe       0.041986755
      792 C1           24.579400000         2.240870000        21.947200000 C.3     132 pe      -0.084813245
      793 C2           24.895800000         3.678460000        22.411300000 C.3     132 pe      -0.084813245
      794 H4           23.522400000         2.175090000        21.703700000 H       132 pe       0.041986755
      795 H5           25.136400000         2.037450000        21.035900000 H       132 pe       0.041986755
      796 H6           24.555100000         3.832190000        23.432200000 H       132 pe       0.041986755
      797 H8           24.354600000         4.351990000        21.752000000 H       132 pe       0.041986755
      798 C1           26.380300000         4.042500000        22.326700000 C.3     133 pe      -0.084813245
      799 C2           26.639700000         5.545910000        22.511900000 C.3     133 pe      -0.084813245
      800 H4           26.754300000         3.736060000        21.356900000 H       133 pe       0.041986755
      801 H5           26.924500000         3.512820000        23.092500000 H       133 pe       0.041986755
      802 H6           25.861500000         6.128730000        22.020400000 H       133 pe       0.041986755
      803 H8           27.594300000         5.784120000        22.049100000 H       133 pe       0.041986755
      804 C1           26.728900000         5.931640000        23.994900000 C.3     134 pe      -0.084813245
      805 C2           27.108000000         7.418410000        24.112900000 C.3     134 pe      -0.084813245
      806 H4           27.500200000         5.333500000        24.480200000 H       134 pe       0.041986755
      807 H5           25.771500000         5.739170000        24.474300000 H       134 pe       0.041986755
      808 H6           26.361800000         8.035630000        23.611900000 H       134 pe       0.041986755
      809 H8           28.067700000         7.567700000        23.618500000 H       134 pe       0.041986755
      810 C1           27.265600000         7.871250000        25.573400000 C.3     135 pe      -0.084813245
      811 C2           25.903800000         8.061380000        26.262100000 C.3     135 pe      -0.084813245
      812 H4           27.780700000         8.831300000        25.580800000 H       135 pe       0.041986755
      813 H5           27.886300000         7.149830000        26.102300000 H       135 pe       0.041986755
      814 H6           25.124900000         7.689080000        25.609100000 H       135 pe       0.041986755
      815 H8           25.732700000         9.128640000        26.401700000 H       135 pe       0.041986755
      816 C1           25.842000000         7.373300000        27.638600000 C.3     136 pe      -0.084813245
      817 C2           24.405600000         7.049920000        28.086000000 C.3     136 pe      -0.084813245
      818 H4           26.270300000         8.061390000        28.367300000 H       136 pe       0.041986755
      819 H5           26.433600000         6.462910000        27.655600000 H       136 pe       0.041986755
      820 H6           23.805000000         7.952810000        27.979200000 H       136 pe       0.041986755
      821 H8           24.436400000         6.801610000        29.144500000 H       136 pe       0.041986755
      822 C1           23.701700000         5.910110000        27.313600000 C.3     137 pe      -0.084813245
      823 C2           24.339400000         4.515620000        27.387500000 C.3     137 pe      -0.084813245
      824 H4           23.659200000         6.158550000        26.264700000 H       137 pe       0.041986755
      825 H5           22.674900000         5.847310000        27.667000000 H       137 pe       0.041986755
      826 H6           25.380400000         4.553900000        27.082700000 H       137 pe       0.041986755
      827 H8           23.826800000         3.881460000        26.669000000 H       137 pe       0.041986755
      828 C1           24.236000000         3.904360000        28.789700000 C.3     138 pe      -0.084813245
      829 C2           23.527200000         2.538080000        28.775000000 C.3     138 pe      -0.084813245
      830 H4           23.739400000         4.590130000        29.467700000 H       138 pe       0.041986755
      831 H5           25.242300000         3.761520000        29.169200000 H       138 pe       0.041986755
      832 H6           23.701100000         2.054150000        29.731000000 H       138 pe       0.041986755
      833 H8           23.980000000         1.911130000        28.008000000 H       138 pe       0.041986755
      834 C1           22.011500000         2.599460000        28.511100000 C.3     139 pe      -0.084813245
      835 C2           21.261400000         3.569000000        29.437000000 C.3     139 pe      -0.084813245
      836 H4           21.605500000         1.597450000        28.621100000 H       139 pe       0.041986755
      837 H5           21.860200000         2.918620000        27.488600000 H       139 pe       0.041986755
      838 H6           21.189300000         4.539090000        28.960500000 H       139 pe       0.041986755
      839 H8           21.831400000         3.696920000        30.344900000 H       139 pe       0.041986755
      840 C1           19.874700000         3.092050000        29.885200000 C.3     140 pe      -0.084813245
      841 C2           18.785500000         2.935260000        28.807500000 C.3     140 pe      -0.084813245
      842 H4           19.527900000         3.777980000        30.650200000 H       140 pe       0.041986755
      843 H5           19.990100000         2.124510000        30.371200000 H       140 pe       0.041986755
      844 H6           17.813600000         2.986870000        29.296500000 H       140 pe       0.041986755
      845 H8           18.908700000         1.925550000        28.421600000 H       140 pe       0.041986755
      846 C1           18.781900000         3.856720000        27.569800000 C.3     141 pe      -0.084813245
      847 C2           18.587800000         5.373670000        27.712900000 C.3     141 pe      -0.084813245
      848 H4           17.998300000         3.500560000        26.904800000 H       141 pe       0.041986755
      849 H5           19.722000000         3.719950000        27.061000000 H       141 pe       0.041986755
      850 H6           18.559500000         5.766550000        26.698100000 H       141 pe       0.041986755
      851 H8           19.438600000         5.822570000        28.215600000 H       141 pe       0.041986755
      852 C1           17.278100000         5.794850000        28.385900000 C.3     142 pe      -0.084813245
      853 C2           17.527000000         6.199060000        29.841400000 C.3     142 pe      -0.084813245
      854 H4           16.563600000         4.973500000        28.352100000 H       142 pe       0.041986755
      855 H5           16.857900000         6.643260000        27.846000000 H       142 pe       0.041986755
      856 H6           18.250100000         5.530170000        30.282100000 H       142 pe       0.041986755
      857 H8           16.596700000         6.072020000        30.381700000 H       142 pe       0.041986755
      858 C1           18.017100000         7.652560000        29.974200000 C.3     143 pe      -0.084813245
      859 C2           18.860300000         7.843040000        31.239900000 C.3     143 pe      -0.084813245
      860 H4           17.157200000         8.309150000        30.050300000 H       143 pe       0.041986755
      861 H5           18.602200000         7.948110000        29.104000000 H       143 pe       0.041986755
      862 H6           18.492300000         7.189780000        32.031200000 H       143 pe       0.041986755
      863 H8           18.769000000         8.878920000        31.566600000 H       143 pe       0.041986755
      864 C1           20.336800000         7.551750000        30.944900000 C.3     144 pe      -0.084813245
      865 C2           21.135900000         7.481830000        32.248300000 C.3     144 pe      -0.084813245
      866 H4           20.739200000         8.344640000        30.314200000 H       144 pe       0.041986755
      867 H5           20.431600000         6.599030000        30.427700000 H       144 pe       0.041986755
      868 H6           20.820200000         6.600170000        32.805900000 H       144 pe       0.041986755
      869 H8           20.952300000         8.376250000        32.843800000 H       144 pe       0.041986755
      870 C1           22.629400000         7.392090000        31.913200000 C.3     145 pe      -0.084813245
      871 C2           23.458900000         7.022410000        33.152700000 C.3     145 pe      -0.084813245
      872 H4           22.965200000         8.362680000        31.548100000 H       145 pe       0.041986755
      873 H5           22.778900000         6.656090000        31.125000000 H       145 pe       0.041986755
      874 H6           22.837300000         7.037650000        34.047600000 H       145 pe       0.041986755
      875 H8           24.242500000         7.771450000        33.265500000 H       145 pe       0.041986755
      876 C1           24.133900000         5.649930000        33.012200000 C.3     146 pe      -0.084813245
      877 C2           23.133600000         4.487030000        33.119000000 C.3     146 pe      -0.084813245
      878 H4           24.861000000         5.546870000        33.816600000 H       146 pe       0.041986755
      879 H5           24.665800000         5.609910000        32.061400000 H       146 pe       0.041986755
      880 H6           22.335900000         4.606590000        32.393400000 H       146 pe       0.041986755
      881 H8           22.708200000         4.479380000        34.122200000 H       146 pe       0.041986755
      882 C1           23.869600000         3.165620000        32.862100000 C.3     147 pe      -0.084813245
      883 C2           22.955700000         1.941670000        32.656600000 C.3     147 pe      -0.084813245
      884 H4           24.543000000         2.990420000        33.696600000 H       147 pe       0.041986755
      885 H5           24.473300000         3.265850000        31.961200000 H       147 pe       0.041986755
      886 H6           23.593800000         1.059110000        32.653100000 H       147 pe       0.041986755
      887 H8           22.481900000         2.002150000        31.686400000 H       147 pe       0.041986755
      888 C1           21.832200000         1.762080000        33.687100000 C.3     148 pe      -0.084813245
      889 C2           21.157700000         0.407596000        33.436100000 C.3     148 pe      -0.084813245
      890 H4           21.092000000         2.552720000        33.567500000 H       148 pe       0.041986755
      891 H5           22.231200000         1.789530000        34.696300000 H       148 pe       0.041986755
      892 H6           21.916400000        -0.373400000        33.430500000 H       148 pe       0.041986755
      893 H8           20.662000000         0.437848000        32.467800000 H       148 pe       0.041986755
      894 C1           20.125900000         0.097698700        34.528000000 C.3     149 pe      -0.084813245
      895 C2           19.213800000        -1.082600000        34.153800000 C.3     149 pe      -0.084813245
      896 H4           19.496400000         0.974747000        34.676800000 H       149 pe       0.041986755
      897 H5           20.644100000        -0.125200000        35.460700000 H       149 pe       0.041986755
      898 H6           18.657500000        -0.835000000        33.250800000 H       149 pe       0.041986755
      899 H8           18.503500000        -1.226000000        34.967500000 H       149 pe       0.041986755
      900 C1           19.985700000        -2.393900000        33.935400000 C.3     150 pe      -0.084813245
      901 C2           19.012700000        -3.567700000        33.787500000 C.3     150 pe      -0.084813245
      902 H4           20.641600000        -2.581900000        34.785200000 H       150 pe       0.041986755
      903 H5           20.581300000        -2.332500000        33.026200000 H       150 pe       0.041986755
      904 H6           18.458300000        -3.709200000        34.714900000 H       150 pe       0.041986755
      905 H7           18.314900000        -3.372000000        32.973700000 H       150 pe       0.041986755
      906 H8           19.577100000        -4.473300000        33.565100000 H       150 pe       0.041986755
      907 C1           22.695400000        31.724900000        32.280400000 C.3     151 pe      -0.084813245
      908 C2           23.271100000        30.322100000        32.052300000 C.3     151 pe      -0.084813245
      909 H3           21.610700000        31.703300000        32.177400000 H       151 pe       0.041986755
      910 H4           22.951300000        32.059800000        33.285100000 H       151 pe       0.041986755
      911 H5           23.110800000        32.422700000        31.555100000 H       151 pe       0.041986755
      912 H6           22.780000000        29.623200000        32.728200000 H       151 pe       0.041986755
      913 H8           24.339900000        30.334400000        32.262900000 H       151 pe       0.041986755
      914 C1           23.039500000        29.888800000        30.600900000 C.3     152 pe      -0.084813245
      915 C2           23.309500000        28.398400000        30.393100000 C.3     152 pe      -0.084813245
      916 H4           23.700600000        30.440200000        29.946800000 H       152 pe       0.041986755
      917 H5           22.014200000        30.108500000        30.319800000 H       152 pe       0.041986755
      918 H6           22.524400000        27.828700000        30.887500000 H       152 pe       0.041986755
      919 H8           24.278500000        28.126800000        30.807600000 H       152 pe       0.041986755
      920 C1           23.303300000        28.138100000        28.882600000 C.3     153 pe      -0.084813245
      921 C2           23.213100000        26.646600000        28.550100000 C.3     153 pe      -0.084813245
      922 H4           24.214200000        28.541600000        28.438900000 H       153 pe       0.041986755
      923 H5           22.450900000        28.650000000        28.448200000 H       153 pe       0.041986755
      924 H6           22.859200000        26.084200000        29.409700000 H       153 pe       0.041986755
      925 H8           24.207700000        26.302700000        28.285700000 H       153 pe       0.041986755
      926 C1           22.253000000        26.454400000        27.367600000 C.3     154 pe      -0.084813245
      927 C2           22.364400000        25.062500000        26.728600000 C.3     154 pe      -0.084813245
      928 H4           22.508200000        27.180500000        26.596600000 H       154 pe       0.041986755
      929 H5           21.229100000        26.640900000        27.690400000 H       154 pe       0.041986755
      930 H6           23.354800000        24.642500000        26.884600000 H       154 pe       0.041986755
      931 H8           22.228500000        25.205500000        25.660000000 H       154 pe       0.041986755
      932 C1           21.298900000        24.057400000        27.189600000 C.3     155 pe      -0.084813245
      933 C2           21.597100000        23.442800000        28.567200000 C.3     155 pe      -0.084813245
      934 H4           21.299000000        23.239200000        26.469800000 H       155 pe       0.041986755
      935 H5           20.315800000        24.520800000        27.164800000 H       155 pe       0.041986755
      936 H6           22.622000000        23.664900000        28.859700000 H       155 pe       0.041986755
      937 H8           21.511500000        22.362700000        28.474300000 H       155 pe       0.041986755
      938 C1           20.656400000        23.925300000        29.683900000 C.3     156 pe      -0.084813245
      939 C2           19.222200000        23.382500000        29.528200000 C.3     156 pe      -0.084813245
      940 H4           20.671200000        25.011500000        29.731900000 H       156 pe       0.041986755
      941 H5           21.047500000        23.546000000        30.627500000 H       156 pe       0.041986755
      942 H6           18.934600000        22.895600000        30.459200000 H       156 pe       0.041986755
      943 H8           19.203400000        22.628700000        28.742100000 H       156 pe       0.041986755
      944 C1           18.183300000        24.461100000        29.169200000 C.3     157 pe      -0.084813245
      945 C2           17.258300000        24.832000000        30.339000000 C.3     157 pe      -0.084813245
      946 H4           17.555000000        24.055800000        28.376700000 H       157 pe       0.041986755
      947 H5           18.657300000        25.362900000        28.783100000 H       157 pe       0.041986755
      948 H6           16.724200000        23.946800000        30.684000000 H       157 pe       0.041986755
      949 H8           16.529500000        25.541300000        29.949500000 H       157 pe       0.041986755
      950 C1           18.014600000        25.462200000        31.519900000 C.3     158 pe      -0.084813245
      951 C2           17.120800000        26.464300000        32.270800000 C.3     158 pe      -0.084813245
      952 H4           18.900300000        25.963600000        31.148600000 H       158 pe       0.041986755
      953 H5           18.323700000        24.675300000        32.208100000 H       158 pe       0.041986755
      954 H6           16.363400000        25.896500000        32.810700000 H       158 pe       0.041986755
      955 H8           16.616500000        27.133700000        31.576100000 H       158 pe       0.041986755
      956 C1           17.907400000        27.304600000        33.290300000 C.3     159 pe      -0.084813245
      957 C2           18.353300000        28.686500000        32.767600000 C.3     159 pe      -0.084813245
      958 H4           18.763100000        26.740900000        33.662200000 H       159 pe       0.041986755
      959 H5           17.240100000        27.488800000        34.131900000 H       159 pe       0.041986755
      960 H6           18.625800000        29.278200000        33.641500000 H       159 pe       0.041986755
      961 H8           17.529800000        29.194600000        32.267200000 H       159 pe       0.041986755
      962 C1           19.591600000        28.651100000        31.859500000 C.3     160 pe      -0.084813245
      963 C2           19.270500000        28.677700000        30.352700000 C.3     160 pe      -0.084813245
      964 H4           20.175300000        27.758500000        32.077500000 H       160 pe       0.041986755
      965 H5           20.212500000        29.506900000        32.112600000 H       160 pe       0.041986755
      966 H6           18.384200000        28.086900000        30.135300000 H       160 pe       0.041986755
      967 H8           20.115200000        28.214000000        29.846700000 H       160 pe       0.041986755
      968 C1           19.051800000        30.096800000        29.797700000 C.3     161 pe      -0.084813245
      969 C2           19.401000000        30.128500000        28.301800000 C.3     161 pe      -0.084813245
      970 H4           19.685000000        30.808700000        30.322700000 H       161 pe       0.041986755
      971 H5           18.009300000        30.383100000        29.934600000 H       161 pe       0.041986755
      972 H6           18.678000000        29.531300000        27.746000000 H       161 pe       0.041986755
      973 H8           20.385600000        29.700600000        28.167300000 H       161 pe       0.041986755
      974 C1           19.406900000        31.565500000        27.759400000 C.3     162 pe      -0.084813245
      975 C2           20.079900000        31.673600000        26.376200000 C.3     162 pe      -0.084813245
      976 H4           19.895700000        32.236300000        28.462300000 H       162 pe       0.041986755
      977 H5           18.370700000        31.886900000        27.655900000 H       162 pe       0.041986755
      978 H6           19.883200000        32.673500000        25.989500000 H       162 pe       0.041986755
      979 H8           19.603300000        30.956200000        25.708100000 H       162 pe       0.041986755
      980 C1           21.605200000        31.436300000        26.319100000 C.3     163 pe      -0.084813245
      981 C2           22.418100000        32.399000000        27.202100000 C.3     163 pe      -0.084813245
      982 H4           21.903000000        31.589000000        25.281900000 H       163 pe       0.041986755
      983 H5           21.848800000        30.409400000        26.582600000 H       163 pe       0.041986755
      984 H6           22.215600000        32.206800000        28.254100000 H       163 pe       0.041986755
      985 H8           22.131800000        33.421300000        26.956800000 H       163 pe       0.041986755
      986 C1           23.922200000        32.201800000        26.952200000 C.3     164 pe      -0.084813245
      987 C2           24.764700000        33.350700000        27.528400000 C.3     164 pe      -0.084813245
      988 H4           24.101200000        32.183300000        25.877700000 H       164 pe       0.041986755
      989 H5           24.247100000        31.249600000        27.371700000 H       164 pe       0.041986755
      990 H6           24.288400000        34.297200000        27.278000000 H       164 pe       0.041986755
      991 H8           25.730000000        33.317000000        27.035600000 H       164 pe       0.041986755
      992 C1           24.964500000        33.297900000        29.053400000 C.3     165 pe      -0.084813245
      993 C2           26.435000000        33.209100000        29.505400000 C.3     165 pe      -0.084813245
      994 H4           24.418100000        32.466800000        29.470200000 H       165 pe       0.041986755
      995 H5           24.547900000        34.215500000        29.468700000 H       165 pe       0.041986755
      996 H6           26.465100000        33.306300000        30.590200000 H       165 pe       0.041986755
      997 H8           26.978700000        34.052100000        29.086000000 H       165 pe       0.041986755
      998 C1           27.159600000        31.909400000        29.107500000 C.3     166 pe      -0.084813245
      999 C2           27.072300000        30.822000000        30.190100000 C.3     166 pe      -0.084813245
     1000 H4           28.210800000        32.150300000        28.947600000 H       166 pe       0.041986755
     1001 H5           26.752100000        31.516000000        28.179800000 H       166 pe       0.041986755
     1002 H6           26.031600000        30.605900000        30.409300000 H       166 pe       0.041986755
     1003 H8           27.575900000        31.159700000        31.095900000 H       166 pe       0.041986755
     1004 C1           27.755800000        29.552800000        29.667500000 C.3     167 pe      -0.084813245
     1005 C2           27.749400000        28.399700000        30.684300000 C.3     167 pe      -0.084813245
     1006 H4           28.790600000        29.804300000        29.441400000 H       167 pe       0.041986755
     1007 H5           27.246900000        29.235500000        28.758500000 H       167 pe       0.041986755
     1008 H6           26.735300000        28.202900000        31.027300000 H       167 pe       0.041986755
     1009 H8           28.357300000        28.695900000        31.539000000 H       167 pe       0.041986755
     1010 C1           28.353500000        27.116700000        30.079600000 C.3     168 pe      -0.084813245
     1011 C2           27.315500000        26.278900000        29.311000000 C.3     168 pe      -0.084813245
     1012 H4           28.745800000        26.503400000        30.890400000 H       168 pe       0.041986755
     1013 H5           29.180600000        27.383600000        29.424100000 H       168 pe       0.041986755
     1014 H6           26.542300000        26.934200000        28.919500000 H       168 pe       0.041986755
     1015 H8           26.859700000        25.568900000        30.001000000 H       168 pe       0.041986755
     1016 C1           27.966800000        25.516100000        28.142700000 C.3     169 pe      -0.084813245
     1017 C2           26.981700000        24.527900000        27.481200000 C.3     169 pe      -0.084813245
     1018 H4           28.822900000        24.952400000        28.513400000 H       169 pe       0.041986755
     1019 H5           28.319200000        26.241000000        27.413300000 H       169 pe       0.041986755
     1020 H6           25.956800000        24.767700000        27.752500000 H       169 pe       0.041986755
     1021 H8           27.205100000        23.536100000        27.873800000 H       169 pe       0.041986755
     1022 C1           27.105200000        24.466700000        25.943300000 C.3     170 pe      -0.084813245
     1023 C2           26.098800000        25.339000000        25.167800000 C.3     170 pe      -0.084813245
     1024 H4           26.931000000        23.433900000        25.641500000 H       170 pe       0.041986755
     1025 H5           28.111200000        24.734900000        25.641300000 H       170 pe       0.041986755
     1026 H6           25.096800000        24.959700000        25.347200000 H       170 pe       0.041986755
     1027 H8           26.314500000        25.245800000        24.103100000 H       170 pe       0.041986755
     1028 C1           26.175300000        26.822100000        25.555500000 C.3     171 pe      -0.084813245
     1029 C2           25.103200000        27.682600000        24.882900000 C.3     171 pe      -0.084813245
     1030 H4           27.166800000        27.201400000        25.328400000 H       171 pe       0.041986755
     1031 H5           25.998900000        26.928900000        26.618500000 H       171 pe       0.041986755
     1032 H6           24.887600000        28.503100000        25.566100000 H       171 pe       0.041986755
     1033 H8           24.191400000        27.104100000        24.743300000 H       171 pe       0.041986755
     1034 C1           25.540400000        28.252400000        23.529200000 C.3     172 pe      -0.084813245
     1035 C2           24.824000000        29.596700000        23.330000000 C.3     172 pe      -0.084813245
     1036 H4           25.267800000        27.535700000        22.759900000 H       172 pe       0.041986755
     1037 H5           26.613000000        28.414200000        23.490400000 H       172 pe       0.041986755
     1038 H6           25.131300000        30.275800000        24.123000000 H       172 pe       0.041986755
     1039 H8           23.749700000        29.449300000        23.427100000 H       172 pe       0.041986755
     1040 C1           25.168600000        30.293400000        22.001600000 C.3     173 pe      -0.084813245
     1041 C2           24.854900000        29.484900000        20.734400000 C.3     173 pe      -0.084813245
     1042 H4           26.230800000        30.536400000        21.996400000 H       173 pe       0.041986755
     1043 H5           24.607500000        31.226100000        21.960500000 H       173 pe       0.041986755
     1044 H6           25.583300000        28.694300000        20.614700000 H       173 pe       0.041986755
     1045 H8           24.938800000        30.139300000        19.885100000 H       173 pe       0.041986755
     1046 C1           23.444500000        28.903500000        20.763200000 C.3     174 pe      -0.084813245
     1047 C2           22.834100000        28.696600000        19.375900000 C.3     174 pe      -0.084813245
     1048 H4           22.814600000        29.592800000        21.310900000 H       174 pe       0.041986755
     1049 H5           23.495100000        27.948600000        21.269900000 H       174 pe       0.041986755
     1050 H6           23.534800000        28.141900000        18.752100000 H       174 pe       0.041986755
     1051 H8           22.643000000        29.662500000        18.914900000 H       174 pe       0.041986755
     1052 C1           21.505700000        27.924400000        19.430300000 C.3     175 pe      -0.084813245
     1053 C2           20.447800000        28.480600000        20.416900000 C.3     175 pe      -0.084813245
     1054 H4           21.686100000        26.862600000        19.565600000 H       175 pe       0.041986755
     1055 H5           21.072000000        28.023600000        18.438200000 H       175 pe       0.041986755
     1056 H6           19.491000000        28.166100000        20.027100000 H       175 pe       0.041986755
     1057 H8           20.461900000        29.566000000        20.340500000 H       175 pe       0.041986755
     1058 C1           20.444600000        28.141200000        21.933800000 C.3     176 pe      -0.084813245
     1059 C2           21.188200000        26.885700000        22.438200000 C.3     176 pe      -0.084813245
     1060 H4           19.405800000        28.102400000        22.257800000 H       176 pe       0.041986755
     1061 H5           20.886800000        28.989000000        22.453800000 H       176 pe       0.041986755
     1062 H6           21.821100000        27.207400000        23.264900000 H       176 pe       0.041986755
     1063 H8           21.834900000        26.484200000        21.676100000 H       176 pe       0.041986755
     1064 C1           20.315500000        25.734200000        22.964600000 C.3     177 pe      -0.084813245
     1065 C2           20.808600000        24.384500000        22.416500000 C.3     177 pe      -0.084813245
     1066 H4           19.278600000        25.858100000        22.668800000 H       177 pe       0.041986755
     1067 H5           20.361000000        25.722500000        24.052500000 H       177 pe       0.041986755
     1068 H6           20.760000000        24.409600000        21.329500000 H       177 pe       0.041986755
     1069 H8           20.124800000        23.609000000        22.761100000 H       177 pe       0.041986755
     1070 C1           22.224800000        24.016600000        22.906700000 C.3     178 pe      -0.084813245
     1071 C2           22.960300000        23.073100000        21.945400000 C.3     178 pe      -0.084813245
     1072 H4           22.111700000        23.490200000        23.853100000 H       178 pe       0.041986755
     1073 H5           22.842200000        24.892000000        23.086400000 H       178 pe       0.041986755
     1074 H6           22.276700000        22.272100000        21.674700000 H       178 pe       0.041986755
     1075 H8           23.785000000        22.630500000        22.494400000 H       178 pe       0.041986755
     1076 C1           23.515100000        23.722500000        20.658600000 C.3     179 pe      -0.084813245
     1077 C2           24.797800000        24.538600000        20.881800000 C.3     179 pe      -0.084813245
     1078 H4           22.765100000        24.359800000        20.195200000 H       179 pe       0.041986755
     1079 H5           23.753400000        22.915400000        19.966900000 H       179 pe       0.041986755
     1080 H6           25.532800000        23.909500000        21.376800000 H       179 pe       0.041986755
     1081 H8           24.578300000        25.401100000        21.507700000 H       179 pe       0.041986755
     1082 C1           25.347500000        25.019500000        19.525900000 C.3     180 pe      -0.084813245
     1083 C2           26.597800000        25.911500000        19.656400000 C.3     180 pe      -0.084813245
     1084 H4           24.573800000        25.617700000        19.044300000 H       180 pe       0.041986755
     1085 H5           25.559600000        24.163200000        18.889300000 H       180 pe       0.041986755
     1086 H6           26.404300000        26.635800000        20.438800000 H       180 pe       0.041986755
     1087 H8           26.748600000        26.447200000        18.719300000 H       180 pe       0.041986755
     1088 C1           27.902400000        25.200800000        20.047100000 C.3     181 pe      -0.084813245
     1089 C2           28.552900000        24.375900000        18.925400000 C.3     181 pe      -0.084813245
     1090 H4           27.711900000        24.545900000        20.890600000 H       181 pe       0.041986755
     1091 H5           28.609600000        25.956500000        20.384600000 H       181 pe       0.041986755
     1092 H6           27.803200000        23.788800000        18.400100000 H       181 pe       0.041986755
     1093 H8           29.241600000        23.690300000        19.405900000 H       181 pe       0.041986755
     1094 C1           29.316400000        25.226700000        17.897200000 C.3     182 pe      -0.084813245
     1095 C2           30.597400000        24.529500000        17.394900000 C.3     182 pe      -0.084813245
     1096 H4           29.559800000        26.207400000        18.301800000 H       182 pe       0.041986755
     1097 H5           28.657400000        25.369600000        17.040200000 H       182 pe       0.041986755
     1098 H6           30.727000000        24.831300000        16.355800000 H       182 pe       0.041986755
     1099 H8           30.475700000        23.447300000        17.408100000 H       182 pe       0.041986755
     1100 C1           31.888100000        24.948400000        18.131900000 C.3     183 pe      -0.084813245
     1101 C2           32.136800000        24.291200000        19.502100000 C.3     183 pe      -0.084813245
     1102 H4           31.876400000        26.028700000        18.275600000 H       183 pe       0.041986755
     1103 H5           32.733700000        24.717800000        17.485100000 H       183 pe       0.041986755
     1104 H6           31.260000000        24.428000000        20.121800000 H       183 pe       0.041986755
     1105 H8           32.965000000        24.826200000        19.964900000 H       183 pe       0.041986755
     1106 C1           32.494600000        22.792100000        19.417500000 C.3     184 pe      -0.084813245
     1107 C2           33.189900000        22.266800000        20.689800000 C.3     184 pe      -0.084813245
     1108 H4           33.183400000        22.644100000        18.586800000 H       184 pe       0.041986755
     1109 H5           31.594200000        22.206500000        19.233700000 H       184 pe       0.041986755
     1110 H6           33.965800000        22.969100000        20.984700000 H       184 pe       0.041986755
     1111 H8           33.665300000        21.315800000        20.450900000 H       184 pe       0.041986755
     1112 C1           32.192500000        22.021600000        21.836600000 C.3     185 pe      -0.084813245
     1113 C2           32.833500000        21.704700000        23.203200000 C.3     185 pe      -0.084813245
     1114 H4           31.584800000        21.160900000        21.562900000 H       185 pe       0.041986755
     1115 H5           31.527200000        22.867300000        21.942500000 H       185 pe       0.041986755
     1116 H6           33.359800000        20.754900000        23.109600000 H       185 pe       0.041986755
     1117 H8           32.032500000        21.562300000        23.926800000 H       185 pe       0.041986755
     1118 C1           33.835000000        22.725900000        23.783900000 C.3     186 pe      -0.084813245
     1119 C2           33.462400000        24.221600000        23.737600000 C.3     186 pe      -0.084813245
     1120 H4           34.773000000        22.612700000        23.241500000 H       186 pe       0.041986755
     1121 H5           34.030400000        22.450500000        24.820100000 H       186 pe       0.041986755
     1122 H6           33.207700000        24.512600000        22.726000000 H       186 pe       0.041986755
     1123 H8           34.377000000        24.757600000        23.991200000 H       186 pe       0.041986755
     1124 C1           32.408300000        24.702600000        24.759500000 C.3     187 pe      -0.084813245
     1125 C2           30.918400000        24.553200000        24.388000000 C.3     187 pe      -0.084813245
     1126 H4           32.598900000        25.755000000        24.961300000 H       187 pe       0.041986755
     1127 H5           32.569300000        24.167100000        25.694600000 H       187 pe       0.041986755
     1128 H6           30.351900000        24.932400000        25.234700000 H       187 pe       0.041986755
     1129 H8           30.686800000        23.496000000        24.287500000 H       187 pe       0.041986755
     1130 C1           30.424000000        25.273500000        23.114600000 C.3     188 pe      -0.084813245
     1131 C2           30.226600000        26.786600000        23.269300000 C.3     188 pe      -0.084813245
     1132 H4           29.458700000        24.844500000        22.848900000 H       188 pe       0.041986755
     1133 H5           31.103500000        25.093600000        22.297900000 H       188 pe       0.041986755
     1134 H6           30.648600000        27.099400000        24.212600000 H       188 pe       0.041986755
     1135 H8           29.157400000        26.998100000        23.267500000 H       188 pe       0.041986755
     1136 C1           30.899300000        27.599700000        22.151700000 C.3     189 pe      -0.084813245
     1137 C2           32.374800000        27.814400000        22.511500000 C.3     189 pe      -0.084813245
     1138 H4           30.415400000        28.574200000        22.086500000 H       189 pe       0.041986755
     1139 H5           30.796900000        27.093100000        21.192700000 H       189 pe       0.041986755
     1140 H6           32.799800000        26.880000000        22.852600000 H       189 pe       0.041986755
     1141 H8           32.422300000        28.545800000        23.316400000 H       189 pe       0.041986755
     1142 C1           33.212400000        28.290200000        21.321000000 C.3     190 pe      -0.084813245
     1143 C2           34.720400000        28.274200000        21.633500000 C.3     190 pe      -0.084813245
     1144 H4           32.901200000        29.288100000        21.028600000 H       190 pe       0.041986755
     1145 H5           33.044100000        27.617600000        20.480500000 H       190 pe       0.041986755
     1146 H6           35.239800000        28.624700000        20.741900000 H       190 pe       0.041986755
     1147 H8           35.036300000        27.249100000        21.826300000 H       190 pe       0.041986755
     1148 C1           35.147600000        29.177500000        22.806100000 C.3     191 pe      -0.084813245
     1149 C2           35.495100000        28.363400000        24.064200000 C.3     191 pe      -0.084813245
     1150 H4           34.368300000        29.897700000        23.036700000 H       191 pe       0.041986755
     1151 H5           36.038100000        29.723200000        22.494000000 H       191 pe       0.041986755
     1152 H6           36.371700000        27.753200000        23.846600000 H       191 pe       0.041986755
     1153 H8           34.670800000        27.706000000        24.329800000 H       191 pe       0.041986755
     1154 C1           35.838000000        29.283400000        25.249100000 C.3     192 pe      -0.084813245
     1155 C2           34.621900000        29.636800000        26.125100000 C.3     192 pe      -0.084813245
     1156 H4           36.266100000        30.208900000        24.865100000 H       192 pe       0.041986755
     1157 H5           36.593600000        28.793000000        25.861800000 H       192 pe       0.041986755
     1158 H6           33.764900000        29.833700000        25.483100000 H       192 pe       0.041986755
     1159 H8           34.860400000        30.545300000        26.678100000 H       192 pe       0.041986755
     1160 C1           34.294200000        28.522000000        27.138500000 C.3     193 pe      -0.084813245
     1161 C2           33.271400000        28.944600000        28.211300000 C.3     193 pe      -0.084813245
     1162 H4           35.207100000        28.255400000        27.670000000 H       193 pe       0.041986755
     1163 H5           33.937700000        27.634300000        26.619700000 H       193 pe       0.041986755
     1164 H6           33.713900000        29.740600000        28.808800000 H       193 pe       0.041986755
     1165 H8           33.096400000        28.090900000        28.865800000 H       193 pe       0.041986755
     1166 C1           31.911300000        29.440200000        27.690500000 C.3     194 pe      -0.084813245
     1167 C2           31.213000000        28.405300000        26.791800000 C.3     194 pe      -0.084813245
     1168 H4           32.061000000        30.373600000        27.151000000 H       194 pe       0.041986755
     1169 H5           31.276700000        29.639800000        28.553500000 H       194 pe       0.041986755
     1170 H6           31.225600000        27.435200000        27.288200000 H       194 pe       0.041986755
     1171 H8           31.759900000        28.327500000        25.856200000 H       194 pe       0.041986755
     1172 C1           29.750300000        28.760300000        26.476400000 C.3     195 pe      -0.084813245
     1173 C2           29.630100000        30.124800000        25.800000000 C.3     195 pe      -0.084813245
     1174 H4           29.173000000        28.762300000        27.389200000 H       195 pe       0.041986755
     1175 H5           29.338600000        28.001900000        25.821400000 H       195 pe       0.041986755
     1176 H6           30.411500000        30.189600000        25.047500000 H       195 pe       0.041986755
     1177 H8           29.752100000        30.890400000        26.561600000 H       195 pe       0.041986755
     1178 C1           28.286300000        30.322900000        25.094500000 C.3     196 pe      -0.084813245
     1179 C2           27.884500000        31.800600000        24.936700000 C.3     196 pe      -0.084813245
     1180 H4           27.504800000        29.822300000        25.665100000 H       196 pe       0.041986755
     1181 H5           28.356100000        29.871300000        24.106200000 H       196 pe       0.041986755
     1182 H6           27.570900000        32.196600000        25.898200000 H       196 pe       0.041986755
     1183 H8           27.021700000        31.831200000        24.273800000 H       196 pe       0.041986755
     1184 C1           28.963000000        32.697800000        24.304400000 C.3     197 pe      -0.084813245
     1185 C2           29.817100000        33.473800000        25.329300000 C.3     197 pe      -0.084813245
     1186 H4           28.445600000        33.436300000        23.695300000 H       197 pe       0.041986755
     1187 H5           29.586400000        32.102200000        23.643500000 H       197 pe       0.041986755
     1188 H6           29.506200000        33.245300000        26.346400000 H       197 pe       0.041986755
     1189 H8           29.666000000        34.538900000        25.170100000 H       197 pe       0.041986755
     1190 C1           31.319700000        33.184300000        25.218400000 C.3     198 pe      -0.084813245
     1191 C2           31.940700000        33.888600000        24.013000000 C.3     198 pe      -0.084813245
     1192 H4           31.513200000        32.121600000        25.167500000 H       198 pe       0.041986755
     1193 H5           31.803000000        33.572600000        26.114700000 H       198 pe       0.041986755
     1194 H6           32.496100000        34.723800000        24.418600000 H       198 pe       0.041986755
     1195 H8           31.173900000        34.283200000        23.352200000 H       198 pe       0.041986755
     1196 C1           32.941400000        33.005900000        23.249200000 C.3     199 pe      -0.084813245
     1197 C2           32.323700000        32.029200000        22.234400000 C.3     199 pe      -0.084813245
     1198 H4           33.530700000        32.436700000        23.968200000 H       199 pe       0.041986755
     1199 H5           33.627200000        33.654100000        22.711000000 H       199 pe       0.041986755
     1200 H6           31.684600000        31.310200000        22.744000000 H       199 pe       0.041986755
     1201 H8           33.157300000        31.499200000        21.783700000 H       199 pe       0.041986755
     1202 C1           31.553000000        32.705600000        21.089700000 C.3     200 pe      -0.084813245
     1203 C2           31.206500000        31.688100000        19.999500000 C.3     200 pe      -0.084813245
     1204 H4           32.172500000        33.484700000        20.650000000 H       200 pe       0.041986755
     1205 H5           30.621500000        33.136000000        21.452100000 H       200 pe       0.041986755
     1206 H6           32.118900000        31.283300000        19.562500000 H       200 pe       0.041986755
     1207 H7           30.611700000        30.879400000        20.424400000 H       200 pe       0.041986755
     1208 H8           30.631700000        32.186500000        19.220200000 H       200 pe       0.041986755
     1209 C1           32.525500000        18.633100000        40.249300000 C.3     201 pe      -0.084813245
     1210 C2           33.284600000        18.848200000        41.561200000 C.3     201 pe      -0.084813245
     1211 H3           33.158400000        18.078700000        39.556200000 H       201 pe       0.041986755
     1212 H4           31.616000000        18.064000000        40.436600000 H       201 pe       0.041986755
     1213 H5           32.271900000        19.593400000        39.806900000 H       201 pe       0.041986755
     1214 H6           34.171700000        19.448500000        41.363700000 H       201 pe       0.041986755
     1215 H8           33.589600000        17.872100000        41.925000000 H       201 pe       0.041986755
     1216 C1           32.403000000        19.535800000        42.616700000 C.3     202 pe      -0.084813245
     1217 C2           33.229300000        19.952300000        43.845400000 C.3     202 pe      -0.084813245
     1218 H4           31.621700000        18.846100000        42.921400000 H       202 pe       0.041986755
     1219 H5           31.945500000        20.421500000        42.179200000 H       202 pe       0.041986755
     1220 H6           33.928600000        20.721700000        43.532800000 H       202 pe       0.041986755
     1221 H8           33.806800000        19.114900000        44.212700000 H       202 pe       0.041986755
     1222 C1           32.354500000        20.518800000        44.979200000 C.3     203 pe      -0.084813245
     1223 C2           31.915400000        19.488000000        46.042130000 C.3     203 pe      -0.084813245
     1224 H4           31.460900000        20.962300000        44.541500000 H       203 pe       0.041986755
     1225 H5           32.907900000        21.315200000        45.474243000 H       203 pe       0.041986755
     1226 H6           31.409200000        18.655500000        45.563341000 H       203 pe       0.041986755
     1227 H8           31.211000000        19.987200000        46.707060000 H       203 pe       0.041986755
     1228 C1           33.072700000        18.924600000        46.883450000 C.3     204 pe      -0.084813245
     1229 C2           32.615100000        18.491200000        48.282500000 C.3     204 pe      -0.084813245
     1230 H4           33.828000000        19.683500000        47.004050000 H       204 pe       0.041986755
     1231 H5           33.510200000        18.074200000        46.368940000 H       204 pe       0.041986755
     1232 H6           31.785300000        17.795900000        48.193720000 H       204 pe       0.041986755
     1233 H8           32.285800000        19.370200000        48.837090000 H       204 pe       0.041986755
     1234 C1           33.775600000        17.837000000        49.051690000 C.3     205 pe      -0.084813245
     1235 C2           33.487200000        16.360400000        49.373920000 C.3     205 pe      -0.084813245
     1236 H4           33.914400000        18.374800000        49.989500000 H       205 pe       0.041986755
     1237 H5           34.691100000        17.920400000        48.469680000 H       205 pe       0.041986755
     1238 H6           33.070400000        15.855300000        48.507250000 H       205 pe       0.041986755
     1239 H8           32.756100000        16.326100000        50.180390000 H       205 pe       0.041986755
     1240 C1           34.755500000        15.623800000        49.838310000 C.3     206 pe      -0.084813245
     1241 C2           35.636300000        15.182700000        48.656440000 C.3     206 pe      -0.084813245
     1242 H4           34.467700000        14.749500000        50.421210000 H       206 pe       0.041986755
     1243 H5           35.325300000        16.294000000        50.479390000 H       206 pe       0.041986755
     1244 H6           36.668400000        15.453200000        48.859170000 H       206 pe       0.041986755
     1245 H8           35.325000000        15.725200000        47.769900000 H       206 pe       0.041986755
     1246 C1           35.568500000        13.663900000        48.404490000 C.3     207 pe      -0.084813245
     1247 C2           36.140800000        13.364600000        47.008400000 C.3     207 pe      -0.084813245
     1248 H4           34.533400000        13.333400000        48.450600000 H       207 pe       0.041986755
     1249 H5           36.139200000        13.142100000        49.170370000 H       207 pe       0.041986755
     1250 H6           37.202500000        13.598200000        46.976770000 H       207 pe       0.041986755
     1251 H8           35.632900000        14.025600000        46.332792000 H       207 pe       0.041986755
     1252 C1           35.892700000        11.934800000        46.499030000 C.3     208 pe      -0.084813245
     1253 C2           36.164800000        11.840500000        44.984400000 C.3     208 pe      -0.084813245
     1254 H4           34.847800000        11.688700000        46.648610000 H       208 pe       0.041986755
     1255 H5           36.483600000        11.217100000        47.055540000 H       208 pe       0.041986755
     1256 H6           36.359900000        12.828500000        44.574000000 H       208 pe       0.041986755
     1257 H8           35.266100000        11.457800000        44.513200000 H       208 pe       0.041986755
     1258 C1           37.334600000        10.946500000        44.555600000 C.3     209 pe      -0.084813245
     1259 C2           37.106400000         9.466710000        44.910200000 C.3     209 pe      -0.084813245
     1260 H4           38.259600000        11.299900000        45.008500000 H       209 pe       0.041986755
     1261 H5           37.418800000        11.057500000        43.476200000 H       209 pe       0.041986755
     1262 H6           36.041600000         9.264500000        45.011300000 H       209 pe       0.041986755
     1263 H8           37.583700000         9.268920000        45.869110000 H       209 pe       0.041986755
     1264 C1           37.722100000         8.509200000        43.874100000 C.3     210 pe      -0.084813245
     1265 C2           36.666800000         7.776620000        43.020000000 C.3     210 pe      -0.084813245
     1266 H4           38.264500000         7.744490000        44.429300000 H       210 pe       0.041986755
     1267 H5           38.445200000         9.026560000        43.246400000 H       210 pe       0.041986755
     1268 H6           35.951000000         7.305760000        43.693400000 H       210 pe       0.041986755
     1269 H8           37.161900000         6.975570000        42.475300000 H       210 pe       0.041986755
     1270 C1           35.873100000         8.650220000        42.026800000 C.3     211 pe      -0.084813245
     1271 C2           36.683900000         9.260240000        40.868800000 C.3     211 pe      -0.084813245
     1272 H4           35.398100000         9.465390000        42.570200000 H       211 pe       0.041986755
     1273 H5           35.080700000         8.036280000        41.598900000 H       211 pe       0.041986755
     1274 H6           37.441500000         9.928900000        41.267700000 H       211 pe       0.041986755
     1275 H8           35.990200000         9.861770000        40.280700000 H       211 pe       0.041986755
     1276 C1           37.308400000         8.225410000        39.909300000 C.3     212 pe      -0.084813245
     1277 C2           38.820000000         8.005520000        40.120500000 C.3     212 pe      -0.084813245
     1278 H4           37.148500000         8.566560000        38.886200000 H       212 pe       0.041986755
     1279 H5           36.794500000         7.271350000        40.020400000 H       212 pe       0.041986755
     1280 H6           39.127900000         7.148660000        39.522600000 H       212 pe       0.041986755
     1281 H8           39.020900000         7.773900000        41.163200000 H       212 pe       0.041986755
     1282 C1           39.640500000         9.245550000        39.727400000 C.3     213 pe      -0.084813245
     1283 C2           40.616300000         8.967410000        38.569100000 C.3     213 pe      -0.084813245
     1284 H4           40.214400000         9.573340000        40.594200000 H       213 pe       0.041986755
     1285 H5           38.952000000        10.036300000        39.457000000 H       213 pe       0.041986755
     1286 H6           40.171700000         8.298810000        37.834700000 H       213 pe       0.041986755
     1287 H8           41.491400000         8.467460000        38.984600000 H       213 pe       0.041986755
     1288 C1           41.095700000        10.251200000        37.860900000 C.3     214 pe      -0.084813245
     1289 C2           40.001700000        11.120800000        37.207000000 C.3     214 pe      -0.084813245
     1290 H4           41.805900000         9.962090000        37.086500000 H       214 pe       0.041986755
     1291 H5           41.622100000        10.867800000        38.589800000 H       214 pe       0.041986755
     1292 H6           40.499900000        11.882900000        36.611700000 H       214 pe       0.041986755
     1293 H8           39.448500000        11.631600000        37.989200000 H       214 pe       0.041986755
     1294 C1           39.041600000        10.338600000        36.288700000 C.3     215 pe      -0.084813245
     1295 C2           37.964500000        11.221800000        35.637600000 C.3     215 pe      -0.084813245
     1296 H4           38.528600000         9.554820000        36.841100000 H       215 pe       0.041986755
     1297 H5           39.628400000         9.876050000        35.495100000 H       215 pe       0.041986755
     1298 H6           37.423700000        10.598800000        34.927400000 H       215 pe       0.041986755
     1299 H8           38.434100000        12.038200000        35.090100000 H       215 pe       0.041986755
     1300 C1           36.930900000        11.757400000        36.645000000 C.3     216 pe      -0.084813245
     1301 C2           37.188100000        13.228100000        37.002600000 C.3     216 pe      -0.084813245
     1302 H4           36.961200000        11.163900000        37.558000000 H       216 pe       0.041986755
     1303 H5           35.935200000        11.660400000        36.213800000 H       216 pe       0.041986755
     1304 H6           38.259100000        13.411400000        37.023300000 H       216 pe       0.041986755
     1305 H8           36.788000000        13.422300000        37.996700000 H       216 pe       0.041986755
     1306 C1           36.514400000        14.188100000        36.010600000 C.3     217 pe      -0.084813245
     1307 C2           37.406700000        15.396500000        35.701700000 C.3     217 pe      -0.084813245
     1308 H4           35.561200000        14.525100000        36.417400000 H       217 pe       0.041986755
     1309 H5           36.331100000        13.673900000        35.066900000 H       217 pe       0.041986755
     1310 H6           36.900300000        15.976000000        34.934100000 H       217 pe       0.041986755
     1311 H8           38.347800000        15.021100000        35.303200000 H       217 pe       0.041986755
     1312 C1           37.681300000        16.308900000        36.912000000 C.3     218 pe      -0.084813245
     1313 C2           38.761200000        17.374800000        36.631600000 C.3     218 pe      -0.084813245
     1314 H4           38.047300000        15.709800000        37.743100000 H       218 pe       0.041986755
     1315 H5           36.754500000        16.787500000        37.226800000 H       218 pe       0.041986755
     1316 H6           39.645100000        16.919900000        36.189100000 H       218 pe       0.041986755
     1317 H8           39.056900000        17.772900000        37.601800000 H       218 pe       0.041986755
     1318 C1           38.269200000        18.577700000        35.802700000 C.3     219 pe      -0.084813245
     1319 C2           38.898300000        18.805800000        34.414700000 C.3     219 pe      -0.084813245
     1320 H4           38.544900000        19.454300000        36.376100000 H       219 pe       0.041986755
     1321 H5           37.188600000        18.564100000        35.729300000 H       219 pe       0.041986755
     1322 H6           39.928700000        19.108300000        34.571800000 H       219 pe       0.041986755
     1323 H8           38.373500000        19.638000000        33.947700000 H       219 pe       0.041986755
     1324 C1           38.809400000        17.597900000        33.466500000 C.3     220 pe      -0.084813245
     1325 C2           39.587600000        17.725700000        32.147800000 C.3     220 pe      -0.084813245
     1326 H4           37.762500000        17.447800000        33.209500000 H       220 pe       0.041986755
     1327 H5           39.167400000        16.710500000        33.962300000 H       220 pe       0.041986755
     1328 H6           39.117400000        18.508600000        31.558000000 H       220 pe       0.041986755
     1329 H8           39.471500000        16.786200000        31.607400000 H       220 pe       0.041986755
     1330 C1           41.094100000        18.044000000        32.238500000 C.3     221 pe      -0.084813245
     1331 C2           41.924200000        17.298700000        33.303200000 C.3     221 pe      -0.084813245
     1332 H4           41.200600000        19.112100000        32.426700000 H       221 pe       0.041986755
     1333 H5           41.531200000        17.836800000        31.261900000 H       221 pe       0.041986755
     1334 H6           41.581800000        17.581000000        34.294700000 H       221 pe       0.041986755
     1335 H8           42.955700000        17.634700000        33.198400000 H       221 pe       0.041986755
     1336 C1           41.915400000        15.766800000        33.191400000 C.3     222 pe      -0.084813245
     1337 C2           42.844000000        15.185800000        34.273200000 C.3     222 pe      -0.084813245
     1338 H4           42.272200000        15.468300000        32.206100000 H       222 pe       0.041986755
     1339 H5           40.907600000        15.389500000        33.336700000 H       222 pe       0.041986755
     1340 H6           42.918200000        15.892200000        35.099000000 H       222 pe       0.041986755
     1341 H8           43.843300000        15.059600000        33.859900000 H       222 pe       0.041986755
     1342 C1           42.339800000        13.863800000        34.879200000 C.3     223 pe      -0.084813245
     1343 C2           42.063600000        12.726600000        33.881900000 C.3     223 pe      -0.084813245
     1344 H4           41.414800000        14.070700000        35.418100000 H       223 pe       0.041986755
     1345 H5           43.079500000        13.518100000        35.601000000 H       223 pe       0.041986755
     1346 H6           41.255900000        13.020300000        33.217100000 H       223 pe       0.041986755
     1347 H8           41.730100000        11.863100000        34.456000000 H       223 pe       0.041986755
     1348 C1           43.302000000        12.308200000        33.072000000 C.3     224 pe      -0.084813245
     1349 C2           42.952200000        11.161700000        32.109200000 C.3     224 pe      -0.084813245
     1350 H4           44.070300000        11.959800000        33.762000000 H       224 pe       0.041986755
     1351 H5           43.695400000        13.148600000        32.505100000 H       224 pe       0.041986755
     1352 H6           41.931400000        10.828800000        32.274300000 H       224 pe       0.041986755
     1353 H8           43.616400000        10.327600000        32.334500000 H       224 pe       0.041986755
     1354 C1           43.147400000        11.530100000        30.626700000 C.3     225 pe      -0.084813245
     1355 C2           42.221200000        12.653400000        30.115600000 C.3     225 pe      -0.084813245
     1356 H4           42.993700000        10.630900000        30.031300000 H       225 pe       0.041986755
     1357 H5           44.180200000        11.849000000        30.487000000 H       225 pe       0.041986755
     1358 H6           42.851700000        13.381000000        29.605400000 H       225 pe       0.041986755
     1359 H8           41.736400000        13.161600000        30.941000000 H       225 pe       0.041986755
     1360 C1           41.157000000        12.184300000        29.105700000 C.3     226 pe      -0.084813245
     1361 C2           40.035800000        11.328200000        29.719500000 C.3     226 pe      -0.084813245
     1362 H4           41.647000000        11.606900000        28.322000000 H       226 pe       0.041986755
     1363 H5           40.709100000        13.063100000        28.641300000 H       226 pe       0.041986755
     1364 H6           40.471000000        10.547900000        30.338600000 H       226 pe       0.041986755
     1365 H8           39.499000000        10.847800000        28.901500000 H       226 pe       0.041986755
     1366 C1           39.012700000        12.156700000        30.519800000 C.3     227 pe      -0.084813245
     1367 C2           38.675600000        11.522400000        31.881500000 C.3     227 pe      -0.084813245
     1368 H4           38.107500000        12.252900000        29.922500000 H       227 pe       0.041986755
     1369 H5           39.398700000        13.157700000        30.703800000 H       227 pe       0.041986755
     1370 H6           38.126300000        12.249100000        32.480200000 H       227 pe       0.041986755
     1371 H8           39.598000000        11.298800000        32.410000000 H       227 pe       0.041986755
     1372 C1           37.858300000        10.223900000        31.768500000 C.3     228 pe      -0.084813245
     1373 C2           36.367200000        10.514700000        31.548900000 C.3     228 pe      -0.084813245
     1374 H4           37.958800000         9.674110000        32.702800000 H       228 pe       0.041986755
     1375 H5           38.250300000         9.597450000        30.970000000 H       228 pe       0.041986755
     1376 H6           36.219400000        11.577200000        31.385300000 H       228 pe       0.041986755
     1377 H8           35.823200000        10.229500000        32.449700000 H       228 pe       0.041986755
     1378 C1           35.803500000         9.730430000        30.354900000 C.3     229 pe      -0.084813245
     1379 C2           34.442000000        10.309500000        29.952700000 C.3     229 pe      -0.084813245
     1380 H4           35.673900000         8.690000000        30.653300000 H       229 pe       0.041986755
     1381 H5           36.476500000         9.774260000        29.498400000 H       229 pe       0.041986755
     1382 H6           33.903000000        10.594900000        30.850200000 H       229 pe       0.041986755
     1383 H8           33.870700000         9.539040000        29.435000000 H       229 pe       0.041986755
     1384 C1           34.592100000        11.516200000        29.011500000 C.3     230 pe      -0.084813245
     1385 C2           33.553400000        12.610100000        29.307400000 C.3     230 pe      -0.084813245
     1386 H4           34.426900000        11.160300000        27.994600000 H       230 pe       0.041986755
     1387 H5           35.594700000        11.932100000        29.058300000 H       230 pe       0.041986755
     1388 H6           32.590700000        12.130100000        29.485100000 H       230 pe       0.041986755
     1389 H8           33.447800000        13.217400000        28.415100000 H       230 pe       0.041986755
     1390 C1           33.869300000        13.522000000        30.515200000 C.3     231 pe      -0.084813245
     1391 C2           35.125400000        14.412500000        30.426600000 C.3     231 pe      -0.084813245
     1392 H4           33.951700000        12.912000000        31.413100000 H       231 pe       0.041986755
     1393 H5           33.019700000        14.184900000        30.649700000 H       231 pe       0.041986755
     1394 H6           36.021000000        13.798000000        30.392800000 H       231 pe       0.041986755
     1395 H8           35.158100000        15.005400000        31.339100000 H       231 pe       0.041986755
     1396 C1           35.115600000        15.362100000        29.218000000 C.3     232 pe      -0.084813245
     1397 C2           36.311400000        16.330100000        29.222200000 C.3     232 pe      -0.084813245
     1398 H4           34.177000000        15.912000000        29.186200000 H       232 pe       0.041986755
     1399 H5           35.207400000        14.766700000        28.311600000 H       232 pe       0.041986755
     1400 H6           36.473300000        16.674400000        28.200800000 H       232 pe       0.041986755
     1401 H8           37.200300000        15.780900000        29.531600000 H       232 pe       0.041986755
     1402 C1           36.166800000        17.562400000        30.133200000 C.3     233 pe      -0.084813245
     1403 C2           35.087600000        18.555800000        29.660500000 C.3     233 pe      -0.084813245
     1404 H4           37.116800000        18.091900000        30.094600000 H       233 pe       0.041986755
     1405 H5           36.003500000        17.254200000        31.164000000 H       233 pe       0.041986755
     1406 H6           34.809200000        18.328800000        28.632200000 H       233 pe       0.041986755
     1407 H8           35.510000000        19.560000000        29.675800000 H       233 pe       0.041986755
     1408 C1           33.813000000        18.528000000        30.521000000 C.3     234 pe      -0.084813245
     1409 C2           33.632300000        19.774800000        31.409600000 C.3     234 pe      -0.084813245
     1410 H4           33.760700000        17.618700000        31.113500000 H       234 pe       0.041986755
     1411 H5           32.969900000        18.512200000        29.831600000 H       234 pe       0.041986755
     1412 H6           32.678800000        19.674400000        31.926800000 H       234 pe       0.041986755
     1413 H8           33.556400000        20.641000000        30.752800000 H       234 pe       0.041986755
     1414 C1           34.755400000        20.062900000        32.432000000 C.3     235 pe      -0.084813245
     1415 C2           34.358600000        19.765500000        33.885400000 C.3     235 pe      -0.084813245
     1416 H4           34.978400000        21.127900000        32.372100000 H       235 pe       0.041986755
     1417 H5           35.663300000        19.514600000        32.194900000 H       235 pe       0.041986755
     1418 H6           33.342500000        20.111500000        34.063500000 H       235 pe       0.041986755
     1419 H8           35.028400000        20.313500000        34.548200000 H       235 pe       0.041986755
     1420 C1           34.503900000        18.269700000        34.191900000 C.3     236 pe      -0.084813245
     1421 C2           33.768100000        17.867200000        35.479300000 C.3     236 pe      -0.084813245
     1422 H4           35.555000000        18.038000000        34.304500000 H       236 pe       0.041986755
     1423 H5           34.149600000        17.681100000        33.357800000 H       236 pe       0.041986755
     1424 H6           33.174400000        18.685800000        35.877400000 H       236 pe       0.041986755
     1425 H8           34.518300000        17.611000000        36.226400000 H       236 pe       0.041986755
     1426 C1           32.887100000        16.629900000        35.251400000 C.3     237 pe      -0.084813245
     1427 C2           31.693600000        16.819300000        34.285400000 C.3     237 pe      -0.084813245
     1428 H4           32.532300000        16.282400000        36.220500000 H       237 pe       0.041986755
     1429 H5           33.522700000        15.845000000        34.841100000 H       237 pe       0.041986755
     1430 H6           31.475800000        15.827600000        33.904400000 H       237 pe       0.041986755
     1431 H8           31.936700000        17.461700000        33.445600000 H       237 pe       0.041986755
     1432 C1           30.399700000        17.316400000        34.935300000 C.3     238 pe      -0.084813245
     1433 C2           30.221500000        18.843800000        34.911900000 C.3     238 pe      -0.084813245
     1434 H4           30.409800000        16.975300000        35.958800000 H       238 pe       0.041986755
     1435 H5           29.557300000        16.846600000        34.438300000 H       238 pe       0.041986755
     1436 H6           31.197600000        19.314200000        34.886500000 H       238 pe       0.041986755
     1437 H8           29.752800000        19.146900000        35.843200000 H       238 pe       0.041986755
     1438 C1           29.427200000        19.396800000        33.708400000 C.3     239 pe      -0.084813245
     1439 C2           27.929500000        19.034000000        33.606200000 C.3     239 pe      -0.084813245
     1440 H4           29.920700000        19.078900000        32.791900000 H       239 pe       0.041986755
     1441 H5           29.492000000        20.483700000        33.758200000 H       239 pe       0.041986755
     1442 H6           27.814500000        18.004300000        33.272200000 H       239 pe       0.041986755
     1443 H8           27.485200000        19.688000000        32.857600000 H       239 pe       0.041986755
     1444 C1           27.189100000        19.208900000        34.937900000 C.3     240 pe      -0.084813245
     1445 C2           25.682400000        19.463100000        34.800500000 C.3     240 pe      -0.084813245
     1446 H4           27.626500000        20.033900000        35.481400000 H       240 pe       0.041986755
     1447 H5           27.324600000        18.290200000        35.503500000 H       240 pe       0.041986755
     1448 H6           25.188400000        19.106100000        35.703300000 H       240 pe       0.041986755
     1449 H8           25.308900000        18.878400000        33.960400000 H       240 pe       0.041986755
     1450 C1           25.326500000        20.947100000        34.570900000 C.3     241 pe      -0.084813245
     1451 C2           24.999900000        21.763200000        35.840500000 C.3     241 pe      -0.084813245
     1452 H4           24.412700000        20.946400000        33.981600000 H       241 pe       0.041986755
     1453 H5           26.099300000        21.444700000        33.986200000 H       241 pe       0.041986755
     1454 H6           24.417900000        21.155500000        36.527500000 H       241 pe       0.041986755
     1455 H8           24.367800000        22.593800000        35.527500000 H       241 pe       0.041986755
     1456 C1           26.208900000        22.380900000        36.568000000 C.3     242 pe      -0.084813245
     1457 C2           26.291200000        21.884500000        38.023900000 C.3     242 pe      -0.084813245
     1458 H4           26.071000000        23.461800000        36.590600000 H       242 pe       0.041986755
     1459 H5           27.123500000        22.178300000        36.022300000 H       242 pe       0.041986755
     1460 H6           26.079300000        20.823900000        38.075500000 H       242 pe       0.041986755
     1461 H8           25.513100000        22.400900000        38.585400000 H       242 pe       0.041986755
     1462 C1           27.637000000        22.191700000        38.711400000 C.3     243 pe      -0.084813245
     1463 C2           28.855600000        21.361400000        38.252500000 C.3     243 pe      -0.084813245
     1464 H4           27.512000000        22.058300000        39.784800000 H       243 pe       0.041986755
     1465 H5           27.865600000        23.241700000        38.530300000 H       243 pe       0.041986755
     1466 H6           29.736700000        21.966500000        38.458000000 H       243 pe       0.041986755
     1467 H8           28.833100000        21.187700000        37.181900000 H       243 pe       0.041986755
     1468 C1           29.077700000        20.026700000        38.987700000 C.3     244 pe      -0.084813245
     1469 C2           28.014600000        18.960000000        38.682800000 C.3     244 pe      -0.084813245
     1470 H4           29.120800000        20.206400000        40.060000000 H       244 pe       0.041986755
     1471 H5           30.046900000        19.650900000        38.666100000 H       244 pe       0.041986755
     1472 H6           27.546800000        19.195500000        37.738100000 H       244 pe       0.041986755
     1473 H8           27.263000000        18.956500000        39.469600000 H       244 pe       0.041986755
     1474 C1           28.622300000        17.562400000        38.534700000 C.3     245 pe      -0.084813245
     1475 C2           27.531100000        16.536300000        38.181600000 C.3     245 pe      -0.084813245
     1476 H4           29.137300000        17.280500000        39.446300000 H       245 pe       0.041986755
     1477 H5           29.347000000        17.598500000        37.738800000 H       245 pe       0.041986755
     1478 H6           26.836500000        16.969700000        37.465300000 H       245 pe       0.041986755
     1479 H8           26.992700000        16.282600000        39.087300000 H       245 pe       0.041986755
     1480 C1           28.106800000        15.246000000        37.586600000 C.3     246 pe      -0.084813245
     1481 C2           26.982400000        14.270800000        37.199100000 C.3     246 pe      -0.084813245
     1482 H4           28.744000000        14.781800000        38.335000000 H       246 pe       0.041986755
     1483 H5           28.690200000        15.483800000        36.701000000 H       246 pe       0.041986755
     1484 H6           26.224500000        14.790100000        36.614400000 H       246 pe       0.041986755
     1485 H8           26.519500000        13.896900000        38.110500000 H       246 pe       0.041986755
     1486 C1           27.517700000        13.058000000        36.416200000 C.3     247 pe      -0.084813245
     1487 C2           26.918100000        12.891400000        35.016600000 C.3     247 pe      -0.084813245
     1488 H4           27.237400000        12.168700000        36.975400000 H       247 pe       0.041986755
     1489 H5           28.598300000        13.094300000        36.330800000 H       247 pe       0.041986755
     1490 H6           25.831900000        12.921900000        35.099800000 H       247 pe       0.041986755
     1491 H8           27.198800000        11.910000000        34.635000000 H       247 pe       0.041986755
     1492 C1           27.359700000        13.962500000        34.010900000 C.3     248 pe      -0.084813245
     1493 C2           28.710600000        13.687600000        33.328200000 C.3     248 pe      -0.084813245
     1494 H4           27.383800000        14.944500000        34.480200000 H       248 pe       0.041986755
     1495 H5           26.594200000        13.967700000        33.244500000 H       248 pe       0.041986755
     1496 H6           28.743100000        12.666000000        32.949800000 H       248 pe       0.041986755
     1497 H8           29.526200000        13.846500000        34.033500000 H       248 pe       0.041986755
     1498 C1           28.834200000        14.665800000        32.151600000 C.3     249 pe      -0.084813245
     1499 C2           30.136500000        14.513800000        31.360300000 C.3     249 pe      -0.084813245
     1500 H4           28.744800000        15.676900000        32.534700000 H       249 pe       0.041986755
     1501 H5           28.022900000        14.478300000        31.460500000 H       249 pe       0.041986755
     1502 H6           30.191900000        13.495600000        30.975900000 H       249 pe       0.041986755
     1503 H8           30.992900000        14.686100000        32.003800000 H       249 pe       0.041986755
     1504 C1           30.184100000        15.478400000        30.162600000 C.3     250 pe      -0.084813245
     1505 C2           30.310200000        16.957900000        30.545400000 C.3     250 pe      -0.084813245
     1506 H4           29.298500000        15.342200000        29.542500000 H       250 pe       0.041986755
     1507 H5           31.062500000        15.227400000        29.577800000 H       250 pe       0.041986755
     1508 H6           31.157000000        17.091800000        31.212800000 H       250 pe       0.041986755
     1509 H7           30.473900000        17.546000000        29.643100000 H       250 pe       0.041986755
     1510 H8           29.404600000        17.313700000        31.028200000 H       250 pe       0.041986755
     1511 C1           20.579300000        14.412800000        44.589500000 C.3     251 pe      -0.084813245
     1512 C2           21.155500000        14.740700000        43.208100000 C.3     251 pe      -0.084813245
     1513 H3           21.123300000        14.962600000        45.356662269 H       251 pe       0.041986755
     1514 H4           19.522000000        14.671700000        44.631500000 H       251 pe       0.041986755
     1515 H5           20.686300000        13.343300000        44.769900000 H       251 pe       0.041986755
     1516 H6           20.544700000        14.265400000        42.440800000 H       251 pe       0.041986755
     1517 H8           22.162500000        14.328300000        43.152800000 H       251 pe       0.041986755
     1518 C1           21.240900000        16.250600000        42.938900000 C.3     252 pe      -0.084813245
     1519 C2           19.871100000        16.941700000        42.962400000 C.3     252 pe      -0.084813245
     1520 H4           21.674300000        16.377500000        41.950100000 H       252 pe       0.041986755
     1521 H5           21.896200000        16.719500000        43.673500000 H       252 pe       0.041986755
     1522 H6           19.576900000        17.138600000        43.990600000 H       252 pe       0.041986755
     1523 H8           19.130900000        16.295600000        42.499500000 H       252 pe       0.041986755
     1524 C1           19.933000000        18.259800000        42.181700000 C.3     253 pe      -0.084813245
     1525 C2           18.611200000        19.028400000        42.334500000 C.3     253 pe      -0.084813245
     1526 H4           20.125400000        18.032100000        41.136500000 H       253 pe       0.041986755
     1527 H5           20.745300000        18.874400000        42.567600000 H       253 pe       0.041986755
     1528 H6           18.721400000        19.722300000        43.167800000 H       253 pe       0.041986755
     1529 H8           17.805400000        18.337200000        42.577500000 H       253 pe       0.041986755
     1530 C1           18.227600000        19.833100000        41.079300000 C.3     254 pe      -0.084813245
     1531 C2           17.816000000        18.925000000        39.907300000 C.3     254 pe      -0.084813245
     1532 H4           19.063300000        20.465100000        40.778200000 H       254 pe       0.041986755
     1533 H5           17.383300000        20.469600000        41.342800000 H       254 pe       0.041986755
     1534 H6           17.356000000        18.031200000        40.308900000 H       254 pe       0.041986755
     1535 H8           18.699900000        18.640800000        39.344000000 H       254 pe       0.041986755
     1536 C1           16.822800000        19.628700000        38.967500000 C.3     255 pe      -0.084813245
     1537 C2           16.597600000        18.864500000        37.647200000 C.3     255 pe      -0.084813245
     1538 H4           17.228100000        20.609100000        38.717500000 H       255 pe       0.041986755
     1539 H5           15.871200000        19.764500000        39.479600000 H       255 pe       0.041986755
     1540 H6           17.562000000        18.633000000        37.204700000 H       255 pe       0.041986755
     1541 H8           16.062400000        19.516500000        36.957600000 H       255 pe       0.041986755
     1542 C1           15.818500000        17.546800000        37.790900000 C.3     256 pe      -0.084813245
     1543 C2           14.298900000        17.764400000        37.724300000 C.3     256 pe      -0.084813245
     1544 H4           16.080900000        17.059100000        38.721800000 H       256 pe       0.041986755
     1545 H5           16.112700000        16.883900000        36.981000000 H       256 pe       0.041986755
     1546 H6           14.028700000        18.165700000        36.747300000 H       256 pe       0.041986755
     1547 H8           13.997200000        18.476100000        38.488900000 H       256 pe       0.041986755
     1548 C1           13.572500000        16.423700000        37.917300000 C.3     257 pe      -0.084813245
     1549 C2           12.191800000        16.579800000        38.576600000 C.3     257 pe      -0.084813245
     1550 H4           14.182700000        15.734900000        38.496400000 H       257 pe       0.041986755
     1551 H5           13.422700000        15.985900000        36.930900000 H       257 pe       0.041986755
     1552 H6           11.547600000        15.829500000        38.118300000 H       257 pe       0.041986755
     1553 H8           11.768800000        17.557400000        38.346600000 H       257 pe       0.041986755
     1554 C1           12.164900000        16.304400000        40.096700000 C.3     258 pe      -0.084813245
     1555 C2           12.449700000        17.517300000        41.004100000 C.3     258 pe      -0.084813245
     1556 H4           12.823100000        15.476200000        40.345000000 H       258 pe       0.041986755
     1557 H5           11.147500000        15.989100000        40.326600000 H       258 pe       0.041986755
     1558 H6           11.878300000        17.391500000        41.922800000 H       258 pe       0.041986755
     1559 H8           12.081300000        18.416600000        40.511700000 H       258 pe       0.041986755
     1560 C1           13.929800000        17.745900000        41.364200000 C.3     259 pe      -0.084813245
     1561 C2           14.413900000        17.092600000        42.675500000 C.3     259 pe      -0.084813245
     1562 H4           14.050500000        18.821100000        41.496500000 H       259 pe       0.041986755
     1563 H5           14.564600000        17.448100000        40.542200000 H       259 pe       0.041986755
     1564 H6           13.646600000        17.203500000        43.441100000 H       259 pe       0.041986755
     1565 H8           15.287400000        17.652200000        43.008900000 H       259 pe       0.041986755
     1566 C1           14.820100000        15.607700000        42.599400000 C.3     260 pe      -0.084813245
     1567 C2           15.890900000        15.326100000        41.532100000 C.3     260 pe      -0.084813245
     1568 H4           13.943400000        14.990900000        42.408600000 H       260 pe       0.041986755
     1569 H5           15.224200000        15.336000000        43.574400000 H       260 pe       0.041986755
     1570 H6           16.545700000        16.188200000        41.450700000 H       260 pe       0.041986755
     1571 H8           15.397900000        15.142200000        40.579900000 H       260 pe       0.041986755
     1572 C1           16.753800000        14.111400000        41.895000000 C.3     261 pe      -0.084813245
     1573 C2           17.489800000        13.507600000        40.684500000 C.3     261 pe      -0.084813245
     1574 H4           16.112500000        13.335800000        42.313700000 H       261 pe       0.041986755
     1575 H5           17.482700000        14.405500000        42.649200000 H       261 pe       0.041986755
     1576 H6           16.758500000        12.986600000        40.066000000 H       261 pe       0.041986755
     1577 H8           18.203400000        12.778100000        41.068000000 H       261 pe       0.041986755
     1578 C1           18.244100000        14.520000000        39.801400000 C.3     262 pe      -0.084813245
     1579 C2           19.176200000        13.767300000        38.837800000 C.3     262 pe      -0.084813245
     1580 H4           18.843400000        15.187300000        40.416300000 H       262 pe       0.041986755
     1581 H5           17.525500000        15.102800000        39.230000000 H       262 pe       0.041986755
     1582 H6           18.774500000        12.768400000        38.670500000 H       262 pe       0.041986755
     1583 H8           20.161400000        13.670600000        39.294900000 H       262 pe       0.041986755
     1584 C1           19.305100000        14.435800000        37.458700000 C.3     263 pe      -0.084813245
     1585 C2           20.155800000        15.715200000        37.473800000 C.3     263 pe      -0.084813245
     1586 H4           18.314300000        14.656800000        37.062100000 H       263 pe       0.041986755
     1587 H5           19.784800000        13.716100000        36.795700000 H       263 pe       0.041986755
     1588 H6           21.151900000        15.472900000        37.843700000 H       263 pe       0.041986755
     1589 H8           19.695000000        16.457800000        38.123300000 H       263 pe       0.041986755
     1590 C1           20.260500000        16.260800000        36.038600000 C.3     264 pe      -0.084813245
     1591 C2           21.175900000        17.489400000        35.921900000 C.3     264 pe      -0.084813245
     1592 H4           19.266800000        16.515200000        35.676900000 H       264 pe       0.041986755
     1593 H5           20.674200000        15.480700000        35.399900000 H       264 pe       0.041986755
     1594 H6           21.552800000        17.535100000        34.899800000 H       264 pe       0.041986755
     1595 H8           22.017600000        17.374100000        36.600800000 H       264 pe       0.041986755
     1596 C1           20.420800000        18.795000000        36.214800000 C.3     265 pe      -0.084813245
     1597 C2           21.363900000        20.009600000        36.192400000 C.3     265 pe      -0.084813245
     1598 H4           19.921000000        18.722300000        37.172100000 H       265 pe       0.041986755
     1599 H5           19.666200000        18.942000000        35.442000000 H       265 pe       0.041986755
     1600 H6           20.986000000        20.692500000        35.431800000 H       265 pe       0.041986755
     1601 H8           22.358100000        19.703200000        35.875600000 H       265 pe       0.041986755
     1602 C1           21.431400000        20.806400000        37.516000000 C.3     266 pe      -0.084813245
     1603 C2           21.785400000        20.045400000        38.811200000 C.3     266 pe      -0.084813245
     1604 H4           20.456200000        21.268000000        37.670600000 H       266 pe       0.041986755
     1605 H5           22.157600000        21.607900000        37.389100000 H       266 pe       0.041986755
     1606 H6           20.974400000        19.374200000        39.067800000 H       266 pe       0.041986755
     1607 H8           21.856500000        20.780000000        39.612200000 H       266 pe       0.041986755
     1608 C1           23.112100000        19.271800000        38.779300000 C.3     267 pe      -0.084813245
     1609 C2           22.993100000        17.960300000        39.570900000 C.3     267 pe      -0.084813245
     1610 H4           23.889200000        19.892800000        39.221200000 H       267 pe       0.041986755
     1611 H5           23.404200000        19.038800000        37.762300000 H       267 pe       0.041986755
     1612 H6           22.103300000        17.412400000        39.266100000 H       267 pe       0.041986755
     1613 H8           22.940100000        18.182900000        40.635000000 H       267 pe       0.041986755
     1614 C1           24.217200000        17.093500000        39.270400000 C.3     268 pe      -0.084813245
     1615 C2           24.209700000        15.754500000        40.025000000 C.3     268 pe      -0.084813245
     1616 H4           25.108100000        17.665500000        39.515300000 H       268 pe       0.041986755
     1617 H5           24.227800000        16.865200000        38.204700000 H       268 pe       0.041986755
     1618 H6           24.776300000        15.039700000        39.432500000 H       268 pe       0.041986755
     1619 H8           23.187900000        15.387800000        40.118500000 H       268 pe       0.041986755
     1620 C1           24.855900000        15.863200000        41.414500000 C.3     269 pe      -0.084813245
     1621 C2           25.135200000        14.467900000        41.999100000 C.3     269 pe      -0.084813245
     1622 H4           24.181900000        16.396000000        42.082000000 H       269 pe       0.041986755
     1623 H5           25.785600000        16.419300000        41.345900000 H       269 pe       0.041986755
     1624 H6           24.440500000        13.752800000        41.559200000 H       269 pe       0.041986755
     1625 H8           24.956200000        14.491100000        43.073800000 H       269 pe       0.041986755
     1626 C1           26.573900000        13.985800000        41.732100000 C.3     270 pe      -0.084813245
     1627 C2           27.593400000        14.696600000        42.640400000 C.3     270 pe      -0.084813245
     1628 H4           26.820200000        14.118000000        40.680700000 H       270 pe       0.041986755
     1629 H5           26.618600000        12.920500000        41.958100000 H       270 pe       0.041986755
     1630 H6           28.031600000        13.951500000        43.300200000 H       270 pe       0.041986755
     1631 H8           27.084900000        15.449000000        43.240100000 H       270 pe       0.041986755
     1632 C1           28.751800000        15.350700000        41.880500000 C.3     271 pe      -0.084813245
     1633 C2           29.356700000        16.489400000        42.713700000 C.3     271 pe      -0.084813245
     1634 H4           28.410900000        15.737100000        40.930900000 H       271 pe       0.041986755
     1635 H5           29.517900000        14.598700000        41.699600000 H       271 pe       0.041986755
     1636 H6           30.417600000        16.565400000        42.479700000 H       271 pe       0.041986755
     1637 H8           29.244800000        16.252100000        43.769000000 H       271 pe       0.041986755
     1638 C1           28.697800000        17.844400000        42.411600000 C.3     272 pe      -0.084813245
     1639 C2           28.620000000        18.703100000        43.679700000 C.3     272 pe      -0.084813245
     1640 H4           27.690000000        17.691300000        42.034900000 H       272 pe       0.041986755
     1641 H5           29.294500000        18.357500000        41.662100000 H       272 pe       0.041986755
     1642 H6           29.557800000        18.608900000        44.214600000 H       272 pe       0.041986755
     1643 H8           27.830400000        18.307900000        44.310200000 H       272 pe       0.041986755
     1644 C1           28.392100000        20.205400000        43.420900000 C.3     273 pe      -0.084813245
     1645 C2           27.113200000        20.545300000        42.637800000 C.3     273 pe      -0.084813245
     1646 H4           29.243700000        20.587600000        42.858300000 H       273 pe       0.041986755
     1647 H5           28.361200000        20.721300000        44.380700000 H       273 pe       0.041986755
     1648 H6           27.103700000        19.966800000        41.720400000 H       273 pe       0.041986755
     1649 H8           27.157500000        21.599800000        42.366700000 H       273 pe       0.041986755
     1650 C1           25.827000000        20.324300000        43.457600000 C.3     274 pe      -0.084813245
     1651 C2           24.621600000        19.946600000        42.578400000 C.3     274 pe      -0.084813245
     1652 H4           25.619700000        21.229400000        44.027400000 H       274 pe       0.041986755
     1653 H5           25.959200000        19.514700000        44.168000000 H       274 pe       0.041986755
     1654 H6           24.225700000        19.005300000        42.958000000 H       274 pe       0.041986755
     1655 H8           24.914300000        19.792800000        41.542500000 H       274 pe       0.041986755
     1656 C1           23.491100000        20.981400000        42.627900000 C.3     275 pe      -0.084813245
     1657 C2           23.868300000        22.269800000        41.879700000 C.3     275 pe      -0.084813245
     1658 H4           23.243300000        21.191300000        43.664300000 H       275 pe       0.041986755
     1659 H5           22.621800000        20.538500000        42.145100000 H       275 pe       0.041986755
     1660 H6           24.135000000        21.999700000        40.858600000 H       275 pe       0.041986755
     1661 H8           24.731700000        22.743700000        42.342000000 H       275 pe       0.041986755
     1662 C1           22.698500000        23.265300000        41.796000000 C.3     276 pe      -0.084813245
     1663 C2           22.701800000        24.355300000        42.888100000 C.3     276 pe      -0.084813245
     1664 H4           21.750200000        22.732500000        41.773200000 H       276 pe       0.041986755
     1665 H5           22.804200000        23.783700000        40.843200000 H       276 pe       0.041986755
     1666 H6           22.142400000        25.206800000        42.501300000 H       276 pe       0.041986755
     1667 H8           23.723900000        24.691500000        43.053600000 H       276 pe       0.041986755
     1668 C1           22.090700000        23.970800000        44.249300000 C.3     277 pe      -0.084813245
     1669 C2           20.602600000        23.585500000        44.140400000 C.3     277 pe      -0.084813245
     1670 H4           22.187000000        24.842200000        44.894700000 H       277 pe       0.041986755
     1671 H5           22.655300000        23.157700000        44.696700000 H       277 pe       0.041986755
     1672 H6           20.522300000        22.531900000        43.880100000 H       277 pe       0.041986755
     1673 H8           20.150900000        24.170800000        43.340600000 H       277 pe       0.041986755
     1674 C1           19.792800000        23.878800000        45.418929700 C.3     278 pe      -0.084813245
     1675 C2           20.052700000        22.909400000        46.583260000 C.3     278 pe      -0.084813245
     1676 H4           18.733600000        23.841200000        45.167400000 H       278 pe       0.041986755
     1677 H5           20.017600000        24.889700000        45.757937000 H       278 pe       0.041986755
     1678 H6           19.690900000        23.375300000        47.499800000 H       278 pe       0.041986755
     1679 H8           21.121100000        22.743200000        46.679590000 H       278 pe       0.041986755
     1680 C1           19.329100000        21.564500000        46.406840000 C.3     279 pe      -0.084813245
     1681 C2           19.545500000        20.692600000        47.653440000 C.3     279 pe      -0.084813245
     1682 H4           19.711900000        21.064700000        45.523142000 H       279 pe       0.041986755
     1683 H5           18.259500000        21.733300000        46.284441000 H       279 pe       0.041986755
     1684 H6           18.821500000        21.004400000        48.406250000 H       279 pe       0.041986755
     1685 H8           20.535100000        20.864000000        48.060830000 H       279 pe       0.041986755
     1686 C1           19.341100000        19.188500000        47.394540000 C.3     280 pe      -0.084813245
     1687 C2           20.414900000        18.481100000        46.539370000 C.3     280 pe      -0.084813245
     1688 H4           18.375900000        19.056300000        46.905550000 H       280 pe       0.041986755
     1689 H5           19.297800000        18.686900000        48.361510000 H       280 pe       0.041986755
     1690 H6           20.425900000        18.879700000        45.527724000 H       280 pe       0.041986755
     1691 H8           20.124800000        17.432500000        46.480310000 H       280 pe       0.041986755
     1692 C1           21.836100000        18.517900000        47.123160000 C.3     281 pe      -0.084813245
     1693 C2           22.717300000        19.555000000        46.403040000 C.3     281 pe      -0.084813245
     1694 H4           22.286700000        17.537700000        46.968920000 H       281 pe       0.041986755
     1695 H5           21.789500000        18.705900000        48.193980000 H       281 pe       0.041986755
     1696 H6           22.176500000        20.484500000        46.247165000 H       281 pe       0.041986755
     1697 H8           22.989700000        19.147400000        45.429792800 H       281 pe       0.041986755
     1698 C1           24.007500000        19.843800000        47.184470000 C.3     282 pe      -0.084813245
     1699 C2           23.782200000        20.851900000        48.324880000 C.3     282 pe      -0.084813245
     1700 H4           24.754200000        20.239900000        46.497360000 H       282 pe       0.041986755
     1701 H5           24.383500000        18.909400000        47.599760000 H       282 pe       0.041986755
     1702 H6           24.450800000        20.615100000        49.140820000 H       282 pe       0.041986755
     1703 H8           22.765500000        20.778800000        48.695150000 H       282 pe       0.041986755
     1704 C1           24.078700000        22.291000000        47.893580000 C.3     283 pe      -0.084813245
     1705 C2           23.806000000        23.256600000        49.064200000 C.3     283 pe      -0.084813245
     1706 H4           23.460000000        22.547100000        47.038440000 H       283 pe       0.041986755
     1707 H5           25.127500000        22.354900000        47.606020000 H       283 pe       0.041986755
     1708 H6           24.663400000        23.256500000        49.737880000 H       283 pe       0.041986755
     1709 H8           22.931900000        22.913500000        49.616140000 H       283 pe       0.041986755
     1710 C1           23.514700000        24.693300000        48.600640000 C.3     284 pe      -0.084813245
     1711 C2           24.779100000        25.379300000        48.067710000 C.3     284 pe      -0.084813245
     1712 H4           23.145700000        25.266900000        49.450840000 H       284 pe       0.041986755
     1713 H5           22.738500000        24.667900000        47.837410000 H       284 pe       0.041986755
     1714 H6           25.362900000        24.653500000        47.518760000 H       284 pe       0.041986755
     1715 H8           25.372500000        25.735100000        48.910360000 H       284 pe       0.041986755
     1716 C1           24.446400000        26.563800000        47.145730000 C.3     285 pe      -0.084813245
     1717 C2           25.668600000        26.978200000        46.311587000 C.3     285 pe      -0.084813245
     1718 H4           24.133900000        27.406200000        47.762730000 H       285 pe       0.041986755
     1719 H5           23.636400000        26.306300000        46.465080000 H       285 pe       0.041986755
     1720 H6           26.557000000        26.970800000        46.937300000 H       285 pe       0.041986755
     1721 H8           25.510700000        27.996300000        45.955349000 H       285 pe       0.041986755
     1722 C1           25.839900000        26.065700000        45.082700000 C.3     286 pe      -0.084813245
     1723 C2           27.244600000        26.152800000        44.466900000 C.3     286 pe      -0.084813245
     1724 H4           25.132000000        26.411000000        44.330000000 H       286 pe       0.041986755
     1725 H5           25.602400000        25.029300000        45.308300000 H       286 pe       0.041986755
     1726 H6           27.628400000        27.159100000        44.600800000 H       286 pe       0.041986755
     1727 H8           27.121600000        25.989700000        43.396400000 H       286 pe       0.041986755
     1728 C1           28.254900000        25.088800000        44.956300000 C.3     287 pe      -0.084813245
     1729 C2           29.160500000        25.514300000        46.130312000 C.3     287 pe      -0.084813245
     1730 H4           28.921600000        24.896400000        44.115800000 H       287 pe       0.041986755
     1731 H5           27.743700000        24.155800000        45.186200000 H       287 pe       0.041986755
     1732 H6           29.185700000        26.598800000        46.196799000 H       287 pe       0.041986755
     1733 H8           30.173200000        25.166500000        45.926772000 H       287 pe       0.041986755
     1734 C1           28.727200000        24.964500000        47.497990000 C.3     288 pe      -0.084813245
     1735 C2           29.164400000        23.513900000        47.749650000 C.3     288 pe      -0.084813245
     1736 H4           27.651200000        25.025500000        47.585880000 H       288 pe       0.041986755
     1737 H5           29.173800000        25.594300000        48.267710000 H       288 pe       0.041986755
     1738 H6           30.247000000        23.481400000        47.872990000 H       288 pe       0.041986755
     1739 H8           28.876000000        22.879900000        46.912270000 H       288 pe       0.041986755
     1740 C1           28.480100000        23.003000000        49.027120000 C.3     289 pe      -0.084813245
     1741 C2           29.056100000        21.646600000        49.456920000 C.3     289 pe      -0.084813245
     1742 H4           27.411200000        22.900400000        48.841040000 H       289 pe       0.041986755
     1743 H5           28.637800000        23.723600000        49.829980000 H       289 pe       0.041986755
     1744 H6           30.092200000        21.787400000        49.764010000 H       289 pe       0.041986755
     1745 H8           29.029200000        20.955700000        48.614420000 H       289 pe       0.041986755
     1746 C1           28.268200000        21.064200000        50.643380000 C.3     290 pe      -0.084813245
     1747 C2           27.326500000        19.949600000        50.170790000 C.3     290 pe      -0.084813245
     1748 H4           27.692300000        21.853200000        51.127100000 H       290 pe       0.041986755
     1749 H5           28.972500000        20.647400000        51.362700000 H       290 pe       0.041986755
     1750 H6           27.928600000        19.140200000        49.764710000 H       290 pe       0.041986755
     1751 H8           26.691900000        20.345800000        49.383470000 H       290 pe       0.041986755
     1752 C1           26.468200000        19.402600000        51.327350000 C.3     291 pe      -0.084813245
     1753 C2           25.401500000        18.424100000        50.806080000 C.3     291 pe      -0.084813245
     1754 H4           25.963600000        20.225600000        51.833300000 H       291 pe       0.041986755
     1755 H5           27.121100000        18.894600000        52.036560000 H       291 pe       0.041986755
     1756 H6           25.676800000        18.133400000        49.794620000 H       291 pe       0.041986755
     1757 H8           24.438300000        18.931100000        50.783720000 H       291 pe       0.041986755
     1758 C1           25.269100000        17.178500000        51.701690000 C.3     292 pe      -0.084813245
     1759 C2           24.129500000        16.230800000        51.278850000 C.3     292 pe      -0.084813245
     1760 H4           25.073300000        17.503300000        52.723500000 H       292 pe       0.041986755
     1761 H5           26.202200000        16.619700000        51.691170000 H       292 pe       0.041986755
     1762 H6           23.169600000        16.692800000        51.509630000 H       292 pe       0.041986755
     1763 H8           24.225300000        15.311300000        51.856020000 H       292 pe       0.041986755
     1764 C1           24.166700000        15.890000000        49.783170000 C.3     293 pe      -0.084813245
     1765 C2           23.520200000        14.534700000        49.472320000 C.3     293 pe      -0.084813245
     1766 H4           25.202300000        15.838000000        49.458260000 H       293 pe       0.041986755
     1767 H5           23.646300000        16.677000000        49.236870000 H       293 pe       0.041986755
     1768 H6           22.595800000        14.418600000        50.038030000 H       293 pe       0.041986755
     1769 H8           24.222600000        13.751100000        49.754620000 H       293 pe       0.041986755
     1770 C1           23.198100000        14.474200000        47.970110000 C.3     294 pe      -0.084813245
     1771 C2           23.301100000        13.061100000        47.364400000 C.3     294 pe      -0.084813245
     1772 H4           23.861400000        15.151500000        47.437420000 H       294 pe       0.041986755
     1773 H5           22.177100000        14.829200000        47.832100000 H       294 pe       0.041986755
     1774 H6           22.355900000        12.848300000        46.866340000 H       294 pe       0.041986755
     1775 H8           23.455800000        12.305900000        48.134020000 H       294 pe       0.041986755
     1776 C1           24.412500000        12.966500000        46.306018000 C.3     295 pe      -0.084813245
     1777 C2           25.799300000        12.751600000        46.937530000 C.3     295 pe      -0.084813245
     1778 H4           24.394900000        13.862800000        45.686277000 H       295 pe       0.041986755
     1779 H5           24.203500000        12.110200000        45.664647000 H       295 pe       0.041986755
     1780 H6           25.903300000        11.693200000        47.176280000 H       295 pe       0.041986755
     1781 H8           25.898500000        13.314000000        47.862330000 H       295 pe       0.041986755
     1782 C1           26.912900000        13.132700000        45.947422000 C.3     296 pe      -0.084813245
     1783 C2           27.795300000        14.303600000        46.414590000 C.3     296 pe      -0.084813245
     1784 H4           26.481400000        13.360800000        44.977600000 H       296 pe       0.041986755
     1785 H5           27.561400000        12.264500000        45.828618000 H       296 pe       0.041986755
     1786 H6           28.555700000        14.477300000        45.657554000 H       296 pe       0.041986755
     1787 H8           28.287400000        13.986900000        47.328730000 H       296 pe       0.041986755
     1788 C1           27.043300000        15.631700000        46.624930000 C.3     297 pe      -0.084813245
     1789 C2           27.949700000        16.807100000        47.041790000 C.3     297 pe      -0.084813245
     1790 H4           26.274000000        15.520200000        47.377680000 H       297 pe       0.041986755
     1791 H5           26.555500000        15.904100000        45.689853000 H       297 pe       0.041986755
     1792 H6           27.310500000        17.641100000        47.331540000 H       297 pe       0.041986755
     1793 H8           28.528400000        17.104500000        46.172672000 H       297 pe       0.041986755
     1794 C1           28.971100000        16.561000000        48.165140000 C.3     298 pe      -0.084813245
     1795 C2           28.399400000        15.966100000        49.460860000 C.3     298 pe      -0.084813245
     1796 H4           29.415200000        17.523300000        48.412940000 H       298 pe       0.041986755
     1797 H5           29.759500000        15.924200000        47.777580000 H       298 pe       0.041986755
     1798 H6           27.699600000        15.170900000        49.238740000 H       298 pe       0.041986755
     1799 H8           27.883300000        16.748000000        50.007150000 H       298 pe       0.041986755
     1800 C1           29.539300000        15.413400000        50.328670000 C.3     299 pe      -0.084813245
     1801 C2           29.043300000        14.744400000        51.623610000 C.3     299 pe      -0.084813245
     1802 H4           30.182700000        16.246800000        50.609350000 H       299 pe       0.041986755
     1803 H5           30.135800000        14.702500000        49.759290000 H       299 pe       0.041986755
     1804 H6           28.511700000        15.488900000        52.215380000 H       299 pe       0.041986755
     1805 H8           29.919600000        14.428000000        52.189160000 H       299 pe       0.041986755
     1806 C1           28.121900000        13.520500000        51.448560000 C.3     300 pe      -0.084813245
     1807 C2           28.715800000        12.425600000        50.551780000 C.3     300 pe      -0.084813245
     1808 H4           27.153600000        13.825600000        51.053970000 H       300 pe       0.041986755
     1809 H5           27.958300000        13.089100000        52.435760000 H       300 pe       0.041986755
     1810 H6           29.738000000        12.206000000        50.859610000 H       300 pe       0.041986755
     1811 H7           28.112000000        11.523400000        50.647820000 H       300 pe       0.041986755
     1812 H8           28.706400000        12.740000000        49.509360000 H       300 pe       0.041986755
     1813 C1           -1.642200000        32.191400000        34.349900000 C.3     301 pe      -0.084813245
     1814 C2           -1.185300000        31.730200000        35.739900000 C.3     301 pe      -0.084813245
     1815 H3           -2.727000000        32.261100000        34.330100000 H       301 pe       0.041986755
     1816 H4           -1.222000000        33.176600000        34.149900000 H       301 pe       0.041986755
     1817 H5           -1.307200000        31.506200000        33.574100000 H       301 pe       0.041986755
     1818 H6           -1.588200000        32.431600000        36.460700000 H       301 pe       0.041986755
     1819 H8           -0.098200000        31.782300000        35.793200000 H       301 pe       0.041986755
     1820 C1           -1.670300000        30.316200000        36.113300000 C.3     302 pe      -0.084813245
     1821 C2           -0.821800000        29.270900000        35.387400000 C.3     302 pe      -0.084813245
     1822 H4           -2.718900000        30.195300000        35.845700000 H       302 pe       0.041986755
     1823 H5           -1.553200000        30.181300000        37.188300000 H       302 pe       0.041986755
     1824 H6            0.217774000        29.505500000        35.595000000 H       302 pe       0.041986755
     1825 H8           -1.020400000        29.352400000        34.323000000 H       302 pe       0.041986755
     1826 C1           -1.098300000        27.821100000        35.807600000 C.3     303 pe      -0.084813245
     1827 C2           -0.464000000        26.834900000        34.809600000 C.3     303 pe      -0.084813245
     1828 H4           -2.175500000        27.657000000        35.800400000 H       303 pe       0.041986755
     1829 H5           -0.719400000        27.632800000        36.809800000 H       303 pe       0.041986755
     1830 H6           -0.857300000        27.063700000        33.824700000 H       303 pe       0.041986755
     1831 H8           -0.792700000        25.829700000        35.074200000 H       303 pe       0.041986755
     1832 C1            1.080790000        26.827200000        34.783400000 C.3     304 pe      -0.084813245
     1833 C2            1.651460000        26.595400000        33.369700000 C.3     304 pe      -0.084813245
     1834 H4            1.403600000        25.999500000        35.411100000 H       304 pe       0.041986755
     1835 H5            1.511420000        27.731800000        35.200600000 H       304 pe       0.041986755
     1836 H6            0.894219000        26.181800000        32.705400000 H       304 pe       0.041986755
     1837 H8            2.443480000        25.853100000        33.462600000 H       304 pe       0.041986755
     1838 C1            2.286440000        27.840200000        32.717900000 C.3     305 pe      -0.084813245
     1839 C2            1.320370000        29.026300000        32.539700000 C.3     305 pe      -0.084813245
     1840 H4            2.656840000        27.529500000        31.741400000 H       305 pe       0.041986755
     1841 H5            3.131160000        28.158000000        33.327400000 H       305 pe       0.041986755
     1842 H6            1.229270000        29.543800000        33.486200000 H       305 pe       0.041986755
     1843 H8            0.343234000        28.648800000        32.245100000 H       305 pe       0.041986755
     1844 C1            1.774480000        30.035400000        31.469000000 C.3     306 pe      -0.084813245
     1845 C2            1.903890000        31.487500000        31.980200000 C.3     306 pe      -0.084813245
     1846 H4            1.005910000        30.041000000        30.696500000 H       306 pe       0.041986755
     1847 H5            2.696610000        29.713000000        30.999900000 H       306 pe       0.041986755
     1848 H6            0.950361000        31.765600000        32.427400000 H       306 pe       0.041986755
     1849 H8            2.060070000        32.136000000        31.118600000 H       306 pe       0.041986755
     1850 C1            3.006980000        31.785500000        33.020600000 C.3     307 pe      -0.084813245
     1851 C2            4.423240000        31.990100000        32.445500000 C.3     307 pe      -0.084813245
     1852 H4            3.026890000        31.021700000        33.795600000 H       307 pe       0.041986755
     1853 H5            2.732090000        32.725200000        33.500400000 H       307 pe       0.041986755
     1854 H6            5.042080000        32.427900000        33.226900000 H       307 pe       0.041986755
     1855 H8            4.389280000        32.689200000        31.610200000 H       307 pe       0.041986755
     1856 C1            5.061780000        30.675400000        31.980300000 C.3     308 pe      -0.084813245
     1857 C2            6.572220000        30.613300000        32.225700000 C.3     308 pe      -0.084813245
     1858 H4            4.875520000        30.564500000        30.912900000 H       308 pe       0.041986755
     1859 H5            4.611100000        29.846900000        32.518100000 H       308 pe       0.041986755
     1860 H6            6.771990000        30.754200000        33.287600000 H       308 pe       0.041986755
     1861 H8            7.071120000        31.391500000        31.649000000 H       308 pe       0.041986755
     1862 C1            7.057860000        29.224100000        31.778700000 C.3     309 pe      -0.084813245
     1863 C2            8.584910000        29.075900000        31.799300000 C.3     309 pe      -0.084813245
     1864 H4            6.725970000        29.049100000        30.755800000 H       309 pe       0.041986755
     1865 H5            6.615030000        28.458500000        32.417200000 H       309 pe       0.041986755
     1866 H6            9.036190000        29.844300000        31.172400000 H       309 pe       0.041986755
     1867 H8            8.823960000        28.102400000        31.375700000 H       309 pe       0.041986755
     1868 C1            9.155880000        29.187000000        33.220400000 C.3     310 pe      -0.084813245
     1869 C2           10.312400000        28.202600000        33.463600000 C.3     310 pe      -0.084813245
     1870 H4            8.369610000        29.011600000        33.951700000 H       310 pe       0.041986755
     1871 H5            9.529390000        30.201200000        33.360000000 H       310 pe       0.041986755
     1872 H6           10.833500000        28.517600000        34.363300000 H       310 pe       0.041986755
     1873 H8           11.016000000        28.250300000        32.632600000 H       310 pe       0.041986755
     1874 C1            9.811350000        26.754700000        33.629600000 C.3     311 pe      -0.084813245
     1875 C2           10.710600000        25.909500000        34.546400000 C.3     311 pe      -0.084813245
     1876 H4            9.816690000        26.284100000        32.647000000 H       311 pe       0.041986755
     1877 H5            8.790550000        26.737200000        34.007000000 H       311 pe       0.041986755
     1878 H6           11.740100000        26.264900000        34.498800000 H       311 pe       0.041986755
     1879 H8           10.697400000        24.895000000        34.148300000 H       311 pe       0.041986755
     1880 C1           10.225400000        25.815500000        36.009300000 C.3     312 pe      -0.084813245
     1881 C2           10.652300000        26.992400000        36.900700000 C.3     312 pe      -0.084813245
     1882 H4           10.692800000        24.924900000        36.430000000 H       312 pe       0.041986755
     1883 H5            9.145850000        25.675900000        36.057500000 H       312 pe       0.041986755
     1884 H6           11.599400000        27.389300000        36.539400000 H       312 pe       0.041986755
     1885 H8           10.817900000        26.600800000        37.903800000 H       312 pe       0.041986755
     1886 C1            9.610410000        28.120300000        37.012600000 C.3     313 pe      -0.084813245
     1887 C2           10.360500000        29.397500000        37.418900000 C.3     313 pe      -0.084813245
     1888 H4            8.871750000        27.846300000        37.755200000 H       313 pe       0.041986755
     1889 H5            9.100580000        28.280000000        36.070600000 H       313 pe       0.041986755
     1890 H6           10.999700000        29.681800000        36.584400000 H       313 pe       0.041986755
     1891 H8           11.011000000        29.179500000        38.259100000 H       313 pe       0.041986755
     1892 C1            9.514320000        30.640000000        37.740600000 C.3     314 pe      -0.084813245
     1893 C2            8.792250000        30.615700000        39.116400000 C.3     314 pe      -0.084813245
     1894 H4            8.868140000        30.865800000        36.904000000 H       314 pe       0.041986755
     1895 H5           10.270600000        31.401300000        37.766200000 H       314 pe       0.041986755
     1896 H6            9.575580000        30.616000000        39.803600000 H       314 pe       0.041986755
     1897 H8            8.325640000        29.656900000        39.233600000 H       314 pe       0.041986755
     1898 C1            7.843740000        31.782600000        39.553000000 C.3     315 pe      -0.084813245
     1899 C2            7.086810000        31.673100000        40.922000000 C.3     315 pe      -0.084813245
     1900 H4            7.145030000        31.835800000        38.764800000 H       315 pe       0.041986755
     1901 H5            8.369310000        32.719000000        39.582500000 H       315 pe       0.041986755
     1902 H6            7.846330000        31.911500000        41.661000000 H       315 pe       0.041986755
     1903 H8            6.835250000        30.655300000        41.135800000 H       315 pe       0.041986755
     1904 C1            5.923490000        32.668500000        41.303500000 C.3     316 pe      -0.084813245
     1905 C2            4.366860000        32.748600000        40.920500000 C.3     316 pe      -0.084813245
     1906 H4            6.367620000        33.600400000        41.042100000 H       316 pe       0.041986755
     1907 H5            5.923230000        32.686600000        42.391800000 H       316 pe       0.041986755
     1908 H6            4.212500000        33.773700000        40.623700000 H       316 pe       0.041986755
     1909 H8            3.783580000        32.688800000        41.835300000 H       316 pe       0.041986755
     1910 C1            3.662580000        31.893900000        39.795400000 C.3     317 pe      -0.084813245
     1911 C2            2.404110000        31.013600000        40.032200000 C.3     317 pe      -0.084813245
     1912 H4            4.413930000        31.306100000        39.319500000 H       317 pe       0.041986755
     1913 H5            3.277760000        32.618200000        39.087900000 H       317 pe       0.041986755
     1914 H6            1.653320000        31.740500000        40.113000000 H       317 pe       0.041986755
     1915 H8            2.459000000        30.496000000        40.968800000 H       317 pe       0.041986755
     1916 C1            1.822940000        30.133900000        38.871100000 C.3     318 pe      -0.084813245
     1917 C2            1.432220000        28.598200000        38.905000000 C.3     318 pe      -0.084813245
     1918 H4            2.315610000        30.384700000        37.941800000 H       318 pe       0.041986755
     1919 H5            0.840588000        30.584800000        38.737900000 H       318 pe       0.041986755
     1920 H6            1.317710000        28.323400000        37.859500000 H       318 pe       0.041986755
     1921 H8            0.423007000        28.594900000        39.313300000 H       318 pe       0.041986755
     1922 C1            2.126860000        27.364600000        39.600500000 C.3     319 pe      -0.084813245
     1923 C2            3.005380000        26.407300000        38.711600000 C.3     319 pe      -0.084813245
     1924 H4            1.279060000        26.731600000        39.858000000 H       319 pe       0.041986755
     1925 H5            2.549180000        27.611300000        40.559500000 H       319 pe       0.041986755
     1926 H6            3.212940000        26.938700000        37.785800000 H       319 pe       0.041986755
     1927 H8            2.320950000        25.605000000        38.450700000 H       319 pe       0.041986755
     1928 C1            4.364510000        25.679400000        39.089900000 C.3     320 pe      -0.084813245
     1929 C2            4.742290000        25.216900000        40.535400000 C.3     320 pe      -0.084813245
     1930 H4            5.192630000        26.242200000        38.670200000 H       320 pe       0.041986755
     1931 H5            4.339150000        24.757600000        38.521400000 H       320 pe       0.041986755
     1932 H6            4.649960000        24.131100000        40.532300000 H       320 pe       0.041986755
     1933 H8            3.967830000        25.587000000        41.207800000 H       320 pe       0.041986755
     1934 C1            6.136750000        25.545600000        41.217600000 C.3     321 pe      -0.084813245
     1935 C2            7.547320000        25.479100000        40.544900000 C.3     321 pe      -0.084813245
     1936 H4            6.197050000        24.788500000        41.991600000 H       321 pe       0.041986755
     1937 H5            6.074670000        26.464000000        41.750900000 H       321 pe       0.041986755
     1938 H6            7.383270000        25.221300000        39.499600000 H       321 pe       0.041986755
     1939 H8            8.048790000        24.626400000        40.998600000 H       321 pe       0.041986755
     1940 C1            8.605380000        26.661100000        40.546500000 C.3     322 pe      -0.084813245
     1941 C2            9.169900000        27.486200000        41.761200000 C.3     322 pe      -0.084813245
     1942 H4            8.225080000        27.400700000        39.874300000 H       322 pe       0.041986755
     1943 H5            9.481950000        26.223400000        40.071700000 H       322 pe       0.041986755
     1944 H6            9.457780000        26.803700000        42.561200000 H       322 pe       0.041986755
     1945 H8            8.382450000        28.133700000        42.116400000 H       322 pe       0.041986755
     1946 C1           10.418500000        28.384500000        41.377600000 C.3     323 pe      -0.084813245
     1947 C2           10.607200000        29.842800000        41.977400000 C.3     323 pe      -0.084813245
     1948 H4           10.407800000        28.464500000        40.300900000 H       323 pe       0.041986755
     1949 H5           11.310600000        27.814500000        41.638000000 H       323 pe       0.041986755
     1950 H6           11.015000000        29.719200000        42.981000000 H       323 pe       0.041986755
     1951 H8            9.627820000        30.298800000        42.093100000 H       323 pe       0.041986755
     1952 C1           11.572100000        30.855200000        41.203200000 C.3     324 pe      -0.084813245
     1953 C2           11.113100000        32.365800000        40.945000000 C.3     324 pe      -0.084813245
     1954 H4           11.851900000        30.400500000        40.254800000 H       324 pe       0.041986755
     1955 H5           12.489700000        30.910300000        41.790400000 H       324 pe       0.041986755
     1956 H6           11.520300000        32.918200000        41.787700000 H       324 pe       0.041986755
     1957 H8           10.045300000        32.463400000        41.040300000 H       324 pe       0.041986755
     1958 C1           11.617100000        33.137400000        39.645300000 C.3     325 pe      -0.084813245
     1959 C2           10.744300000        33.955000000        38.578100000 C.3     325 pe      -0.084813245
     1960 H4           12.133900000        32.387400000        39.048700000 H       325 pe       0.041986755
     1961 H5           12.392900000        33.820500000        39.984900000 H       325 pe       0.041986755
     1962 H6            9.880780000        33.409000000        38.250500000 H       325 pe       0.041986755
     1963 H8           11.394800000        34.025000000        37.707500000 H       325 pe       0.041986755
     1964 C1           10.210800000        35.406200000        38.799100000 C.3     326 pe      -0.084813245
     1965 C2            9.858690000        36.314600000        37.545300000 C.3     326 pe      -0.084813245
     1966 H4           10.999100000        35.935600000        39.332500000 H       326 pe       0.041986755
     1967 H5            9.348510000        35.361700000        39.454300000 H       326 pe       0.041986755
     1968 H6           10.761800000        36.349700000        36.936100000 H       326 pe       0.041986755
     1969 H8            9.715650000        37.319300000        37.941400000 H       326 pe       0.041986755
     1970 C1            8.669140000        36.052700000        36.537800000 C.3     327 pe      -0.084813245
     1971 C2            7.584360000        37.202900000        36.320500000 C.3     327 pe      -0.084813245
     1972 H4            8.217250000        35.098100000        36.779600000 H       327 pe       0.041986755
     1973 H5            9.136260000        35.911600000        35.563500000 H       327 pe       0.041986755
     1974 H6            8.038950000        37.935900000        35.654200000 H       327 pe       0.041986755
     1975 H8            7.419700000        37.717800000        37.258400000 H       327 pe       0.041986755
     1976 C1            6.184760000        36.810000000        35.669400000 C.3     328 pe      -0.084813245
     1977 C2            4.796240000        37.514000000        36.006200000 C.3     328 pe      -0.084813245
     1978 H4            6.037930000        35.750300000        35.762400000 H       328 pe       0.041986755
     1979 H5            6.329830000        36.984100000        34.603800000 H       328 pe       0.041986755
     1980 H6            4.207120000        37.470600000        35.091200000 H       328 pe       0.041986755
     1981 H8            5.011240000        38.565600000        36.195500000 H       328 pe       0.041986755
     1982 C1            3.847580000        37.019800000        37.173200000 C.3     329 pe      -0.084813245
     1983 C2            2.346510000        36.581100000        37.018900000 C.3     329 pe      -0.084813245
     1984 H4            3.817190000        37.843600000        37.875100000 H       329 pe       0.041986755
     1985 H5            4.322380000        36.207300000        37.627500000 H       329 pe       0.041986755
     1986 H6            2.197380000        36.361200000        35.962600000 H       329 pe       0.041986755
     1987 H8            1.735010000        37.451300000        37.256700000 H       329 pe       0.041986755
     1988 C1            1.724760000        35.340000000        37.801100000 C.3     330 pe      -0.084813245
     1989 C2            1.503000000        35.252300000        39.365300000 C.3     330 pe      -0.084813245
     1990 H4            2.264080000        34.447900000        37.494800000 H       330 pe       0.041986755
     1991 H5            0.725871000        35.242000000        37.378400000 H       330 pe       0.041986755
     1992 H6            1.180800000        36.222700000        39.731000000 H       330 pe       0.041986755
     1993 H8            2.451150000        35.020900000        39.831600000 H       330 pe       0.041986755
     1994 C1            0.438997000        34.176300000        39.835100000 C.3     331 pe      -0.084813245
     1995 C2            0.472737000        33.580300000        41.306900000 C.3     331 pe      -0.084813245
     1996 H4            0.473367000        33.360100000        39.118800000 H       331 pe       0.041986755
     1997 H5           -0.535200000        34.635300000        39.725800000 H       331 pe       0.041986755
     1998 H6            0.093609400        34.337900000        41.989900000 H       331 pe       0.041986755
     1999 H8            1.506730000        33.416900000        41.594800000 H       331 pe       0.041986755
     2000 C1           -0.367600000        32.249500000        41.554400000 C.3     332 pe      -0.084813245
     2001 C2            0.104739000        31.216000000        42.659000000 C.3     332 pe      -0.084813245
     2002 H4           -0.504700000        31.713100000        40.618000000 H       332 pe       0.041986755
     2003 H5           -1.359900000        32.573800000        41.846400000 H       332 pe       0.041986755
     2004 H6           -0.554300000        31.364300000        43.511900000 H       332 pe       0.041986755
     2005 H8            1.097750000        31.503700000        42.976600000 H       332 pe       0.041986755
     2006 C1            0.064318900        29.666000000        42.312500000 C.3     333 pe      -0.084813245
     2007 C2            0.279306000        28.550900000        43.402500000 C.3     333 pe      -0.084813245
     2008 H4            0.723659000        29.424500000        41.503500000 H       333 pe       0.041986755
     2009 H5           -0.927700000        29.485900000        41.939500000 H       333 pe       0.041986755
     2010 H6           -0.631300000        27.976400000        43.360400000 H       333 pe       0.041986755
     2011 H8            0.286442000        29.016200000        44.368800000 H       333 pe       0.041986755
     2012 C1            1.390840000        27.438400000        43.224200000 C.3     334 pe      -0.084813245
     2013 C2            1.641890000        26.356000000        44.333900000 C.3     334 pe      -0.084813245
     2014 H4            2.341930000        27.834100000        42.931000000 H       334 pe       0.041986755
     2015 H5            1.039070000        26.856700000        42.374600000 H       334 pe       0.041986755
     2016 H6            1.633560000        25.398400000        43.814800000 H       334 pe       0.041986755
     2017 H8            0.777502000        26.368200000        44.994500000 H       334 pe       0.041986755
     2018 C1            2.906720000        26.300400000        45.268900000 C.3     335 pe      -0.084813245
     2019 C2            4.353370000        26.293700000        44.683400000 C.3     335 pe      -0.084813245
     2020 H4            2.816040000        25.378300000        45.842719000 H       335 pe       0.041986755
     2021 H5            2.819170000        27.098800000        45.983308000 H       335 pe       0.041986755
     2022 H6            4.354420000        26.962300000        43.862900000 H       335 pe       0.041986755
     2023 H8            4.573160000        25.301400000        44.295500000 H       335 pe       0.041986755
     2024 C1            5.517230000        26.736300000        45.635422000 C.3     336 pe      -0.084813245
     2025 C2            6.803030000        27.302300000        44.943800000 C.3     336 pe      -0.084813245
     2026 H4            5.816250000        25.845100000        46.174331000 H       336 pe       0.041986755
     2027 H5            5.173550000        27.452900000        46.374970000 H       336 pe       0.041986755
     2028 H6            6.813490000        26.934600000        43.923100000 H       336 pe       0.041986755
     2029 H8            7.692590000        26.919400000        45.420994100 H       336 pe       0.041986755
     2030 C1            6.994010000        28.832700000        44.883700000 C.3     337 pe      -0.084813245
     2031 C2            7.811780000        29.578900000        45.950840000 C.3     337 pe      -0.084813245
     2032 H4            6.027780000        29.244800000        44.889500000 H       337 pe       0.041986755
     2033 H5            7.461960000        29.084300000        43.940100000 H       337 pe       0.041986755
     2034 H6            8.654830000        30.068300000        45.462846000 H       337 pe       0.041986755
     2035 H8            8.198220000        28.867900000        46.676850000 H       337 pe       0.041986755
     2036 C1            6.997060000        30.645400000        46.715430000 C.3     338 pe      -0.084813245
     2037 C2            6.503740000        31.916900000        45.967883000 C.3     338 pe      -0.084813245
     2038 H4            7.648540000        31.011500000        47.498370000 H       338 pe       0.041986755
     2039 H5            6.163070000        30.122600000        47.180100000 H       338 pe       0.041986755
     2040 H6            6.014530000        31.670800000        45.036800000 H       338 pe       0.041986755
     2041 H8            7.356320000        32.534000000        45.706162000 H       338 pe       0.041986755
     2042 C1            5.541860000        32.729900000        46.877300000 C.3     339 pe      -0.084813245
     2043 C2            4.298240000        33.321700000        46.176368000 C.3     339 pe      -0.084813245
     2044 H4            6.096200000        33.539400000        47.337960000 H       339 pe       0.041986755
     2045 H5            5.187120000        32.082200000        47.671440000 H       339 pe       0.041986755
     2046 H6            3.832170000        32.548500000        45.594540000 H       339 pe       0.041986755
     2047 H8            4.589970000        34.112400000        45.491651000 H       339 pe       0.041986755
     2048 C1            3.255990000        33.842400000        47.194640000 C.3     340 pe      -0.084813245
     2049 C2            1.831790000        33.962600000        46.604920000 C.3     340 pe      -0.084813245
     2050 H4            3.569360000        34.819900000        47.560880000 H       340 pe       0.041986755
     2051 H5            3.212740000        33.162100000        48.042720000 H       340 pe       0.041986755
     2052 H6            1.756400000        33.405600000        45.672395000 H       340 pe       0.041986755
     2053 H8            1.616240000        35.009500000        46.400900000 H       340 pe       0.041986755
     2054 C1            0.774367000        33.425500000        47.588320000 C.3     341 pe      -0.084813245
     2055 C2           -0.646100000        33.538900000        47.003590000 C.3     341 pe      -0.084813245
     2056 H4            0.815433000        34.001500000        48.513470000 H       341 pe       0.041986755
     2057 H5            0.991603000        32.383700000        47.813430000 H       341 pe       0.041986755
     2058 H6           -0.601000000        33.566900000        45.916122000 H       341 pe       0.041986755
     2059 H8           -1.084500000        34.472200000        47.357240000 H       341 pe       0.041986755
     2060 C1           -1.552600000        32.372400000        47.439720000 C.3     342 pe      -0.084813245
     2061 C2           -1.443300000        31.199400000        46.447660000 C.3     342 pe      -0.084813245
     2062 H4           -2.587400000        32.714900000        47.446850000 H       342 pe       0.041986755
     2063 H5           -1.276800000        32.066800000        48.448590000 H       342 pe       0.041986755
     2064 H6           -0.402900000        31.075400000        46.163644000 H       342 pe       0.041986755
     2065 H8           -2.013600000        31.449600000        45.553862000 H       342 pe       0.041986755
     2066 C1           -1.925000000        29.855400000        47.027380000 C.3     343 pe      -0.084813245
     2067 C2           -3.243900000        29.366900000        46.414160000 C.3     343 pe      -0.084813245
     2068 H4           -2.062800000        29.941500000        48.104130000 H       343 pe       0.041986755
     2069 H5           -1.160400000        29.107300000        46.837320000 H       343 pe       0.041986755
     2070 H6           -3.905900000        30.220700000        46.286228000 H       343 pe       0.041986755
     2071 H8           -3.717700000        28.667500000        47.099400000 H       343 pe       0.041986755
     2072 C1           -3.071800000        28.693100000        45.045600000 C.3     344 pe      -0.084813245
     2073 C2           -2.758700000        27.185800000        45.090200000 C.3     344 pe      -0.084813245
     2074 H4           -2.313800000        29.222400000        44.475800000 H       344 pe       0.041986755
     2075 H5           -4.014400000        28.810300000        44.536200000 H       344 pe       0.041986755
     2076 H6           -3.422900000        26.696700000        45.794849000 H       344 pe       0.041986755
     2077 H8           -1.729700000        27.049000000        45.417342400 H       344 pe       0.041986755
     2078 C1           -2.995600000        26.561100000        43.697300000 C.3     345 pe      -0.084813245
     2079 C2           -2.121600000        25.320800000        43.415400000 C.3     345 pe      -0.084813245
     2080 H4           -2.796800000        27.317200000        42.942700000 H       345 pe       0.041986755
     2081 H5           -4.043500000        26.273700000        43.613600000 H       345 pe       0.041986755
     2082 H6           -2.614500000        24.436100000        43.817400000 H       345 pe       0.041986755
     2083 H8           -1.154800000        25.428400000        43.896900000 H       345 pe       0.041986755
     2084 C1           -1.887400000        25.138200000        41.903400000 C.3     346 pe      -0.084813245
     2085 C2           -0.853100000        24.034300000        41.621200000 C.3     346 pe      -0.084813245
     2086 H4           -1.504800000        26.068800000        41.486400000 H       346 pe       0.041986755
     2087 H5           -2.831200000        24.887200000        41.419400000 H       346 pe       0.041986755
     2088 H6           -1.204900000        23.089200000        42.034900000 H       346 pe       0.041986755
     2089 H8            0.088810300        24.302800000        42.096800000 H       346 pe       0.041986755
     2090 C1           -0.619800000        23.871300000        40.108500000 C.3     347 pe      -0.084813245
     2091 C2            0.650356000        23.047800000        39.832800000 C.3     347 pe      -0.084813245
     2092 H4           -0.505700000        24.853500000        39.651400000 H       347 pe       0.041986755
     2093 H5           -1.481800000        23.371200000        39.667100000 H       347 pe       0.041986755
     2094 H6            0.565290000        22.076900000        40.321000000 H       347 pe       0.041986755
     2095 H8            1.510590000        23.579400000        40.239800000 H       347 pe       0.041986755
     2096 C1            0.854233000        22.837600000        38.322000000 C.3     348 pe      -0.084813245
     2097 C2            2.214170000        22.168900000        38.040600000 C.3     348 pe      -0.084813245
     2098 H4            0.799479000        23.799500000        37.817000000 H       348 pe       0.041986755
     2099 H5            0.056996400        22.197900000        37.943700000 H       348 pe       0.041986755
     2100 H6            2.182610000        21.159200000        38.450200000 H       348 pe       0.041986755
     2101 H8            3.013210000        22.714900000        38.537400000 H       348 pe       0.041986755
     2102 C1            2.524100000        22.060800000        36.534900000 C.3     349 pe      -0.084813245
     2103 C2            3.085970000        23.356200000        35.921000000 C.3     349 pe      -0.084813245
     2104 H4            1.608310000        21.795200000        36.007900000 H       349 pe       0.041986755
     2105 H5            3.248800000        21.260500000        36.385500000 H       349 pe       0.041986755
     2106 H6            2.717270000        24.213800000        36.474400000 H       349 pe       0.041986755
     2107 H8            2.734850000        23.429500000        34.892200000 H       349 pe       0.041986755
     2108 C1            4.622840000        23.379200000        35.905400000 C.3     350 pe      -0.084813245
     2109 C2            5.137420000        24.755500000        35.459300000 C.3     350 pe      -0.084813245
     2110 H4            4.990330000        22.628500000        35.206100000 H       350 pe       0.041986755
     2111 H5            5.011090000        23.155900000        36.897800000 H       350 pe       0.041986755
     2112 H6            4.697400000        25.544100000        36.068000000 H       350 pe       0.041986755
     2113 H7            6.221520000        24.788100000        35.569000000 H       350 pe       0.041986755
     2114 H8            4.877760000        24.924400000        34.414700000 H       350 pe       0.041986755
     2115 C1           24.431500000        47.741200000        36.943500000 C.3     351 pe      -0.084813245
     2116 C2           24.237600000        46.219071000        36.975200000 C.3     351 pe      -0.084813245
     2117 H3           23.653400000        48.204000000        36.338300000 H       351 pe       0.041986755
     2118 H4           24.359700000        48.131000000        37.957700000 H       351 pe       0.041986755
     2119 H5           25.404700000        47.993490000        36.524800000 H       351 pe       0.041986755
     2120 H6           23.196900000        46.014115000        37.223900000 H       351 pe       0.041986755
     2121 H8           24.868400000        45.773909000        37.738200000 H       351 pe       0.041986755
     2122 C1           24.544600000        45.602245000        35.606400000 C.3     352 pe      -0.084813245
     2123 C2           25.897600000        44.879700000        35.514200000 C.3     352 pe      -0.084813245
     2124 H4           24.579500000        46.398770000        34.877600000 H       352 pe       0.041986755
     2125 H5           23.726700000        44.937800000        35.344900000 H       352 pe       0.041986755
     2126 H6           26.606300000        45.361523670        36.184100000 H       352 pe       0.041986755
     2127 H8           26.286300000        45.002900000        34.504700000 H       352 pe       0.041986755
     2128 C1           25.833800000        43.378500000        35.853600000 C.3     353 pe      -0.084813245
     2129 C2           24.914200000        42.498600000        34.974500000 C.3     353 pe      -0.084813245
     2130 H4           25.504900000        43.275300000        36.887400000 H       353 pe       0.041986755
     2131 H5           26.847000000        42.983000000        35.789500000 H       353 pe       0.041986755
     2132 H6           23.898400000        42.575700000        35.361400000 H       353 pe       0.041986755
     2133 H8           25.230100000        41.462500000        35.093800000 H       353 pe       0.041986755
     2134 C1           24.863900000        42.812800000        33.466200000 C.3     354 pe      -0.084813245
     2135 C2           26.183100000        42.513700000        32.732600000 C.3     354 pe      -0.084813245
     2136 H4           24.569600000        43.847100000        33.304600000 H       354 pe       0.041986755
     2137 H5           24.089200000        42.179700000        33.033600000 H       354 pe       0.041986755
     2138 H6           26.204900000        41.459300000        32.457200000 H       354 pe       0.041986755
     2139 H8           27.027800000        42.717800000        33.386600000 H       354 pe       0.041986755
     2140 C1           26.358100000        43.377100000        31.472100000 C.3     355 pe      -0.084813245
     2141 C2           25.306400000        43.070500000        30.397400000 C.3     355 pe      -0.084813245
     2142 H4           27.346300000        43.174300000        31.059100000 H       355 pe       0.041986755
     2143 H5           26.306300000        44.431500000        31.744100000 H       355 pe       0.041986755
     2144 H6           24.314100000        43.193400000        30.816400000 H       355 pe       0.041986755
     2145 H8           25.435400000        42.046300000        30.048000000 H       355 pe       0.041986755
     2146 C1           25.461800000        44.048400000        29.227600000 C.3     356 pe      -0.084813245
     2147 C2           24.627100000        43.671200000        27.994600000 C.3     356 pe      -0.084813245
     2148 H4           26.500000000        44.059000000        28.927000000 H       356 pe       0.041986755
     2149 H5           25.197900000        45.050000000        29.560800000 H       356 pe       0.041986755
     2150 H6           24.810700000        42.636100000        27.711900000 H       356 pe       0.041986755
     2151 H8           24.952900000        44.309100000        27.173200000 H       356 pe       0.041986755
     2152 C1           23.131500000        43.933900000        28.212500000 C.3     357 pe      -0.084813245
     2153 C2           22.347800000        42.698700000        28.692600000 C.3     357 pe      -0.084813245
     2154 H4           22.703700000        44.245900000        27.260100000 H       357 pe       0.041986755
     2155 H5           23.029600000        44.752500000        28.918800000 H       357 pe       0.041986755
     2156 H6           23.029000000        41.914900000        29.016200000 H       357 pe       0.041986755
     2157 H8           21.762700000        42.317900000        27.855200000 H       357 pe       0.041986755
     2158 C1           21.394500000        42.995600000        29.859800000 C.3     358 pe      -0.084813245
     2159 C2           20.497300000        44.209800000        29.577700000 C.3     358 pe      -0.084813245
     2160 H4           21.963900000        43.195600000        30.765000000 H       358 pe       0.041986755
     2161 H5           20.801700000        42.098000000        30.023800000 H       358 pe       0.041986755
     2162 H6           20.428500000        44.380800000        28.504600000 H       358 pe       0.041986755
     2163 H8           20.957900000        45.080100000        30.039800000 H       358 pe       0.041986755
     2164 C1           19.091300000        44.075400000        30.169200000 C.3     359 pe      -0.084813245
     2165 C2           18.047000000        43.958800000        29.060200000 C.3     359 pe      -0.084813245
     2166 H4           18.873700000        44.986300000        30.725000000 H       359 pe       0.041986755
     2167 H5           19.014500000        43.229700000        30.848800000 H       359 pe       0.041986755
     2168 H6           18.172900000        44.795000000        28.382900000 H       359 pe       0.041986755
     2169 H8           17.064800000        44.032600000        29.522800000 H       359 pe       0.041986755
     2170 C1           18.171200000        42.667100000        28.239900000 C.3     360 pe      -0.084813245
     2171 C2           16.815000000        41.980200000        28.104600000 C.3     360 pe      -0.084813245
     2172 H4           18.866900000        41.968500000        28.696300000 H       360 pe       0.041986755
     2173 H5           18.536300000        42.919900000        27.245200000 H       360 pe       0.041986755
     2174 H6           16.858700000        41.355000000        27.218400000 H       360 pe       0.041986755
     2175 H8           16.026600000        42.718800000        27.964900000 H       360 pe       0.041986755
     2176 C1           16.552700000        41.099300000        29.336600000 C.3     361 pe      -0.084813245
     2177 C2           15.053800000        40.861600000        29.536200000 C.3     361 pe      -0.084813245
     2178 H4           16.960900000        41.559300000        30.235700000 H       361 pe       0.041986755
     2179 H5           17.043300000        40.138800000        29.185000000 H       361 pe       0.041986755
     2180 H6           14.916100000        39.900400000        30.031400000 H       361 pe       0.041986755
     2181 H8           14.557800000        40.831600000        28.567600000 H       361 pe       0.041986755
     2182 C1           14.447300000        41.958900000        30.422800000 C.3     362 pe      -0.084813245
     2183 C2           12.925800000        41.992900000        30.253100000 C.3     362 pe      -0.084813245
     2184 H4           14.858300000        42.936100000        30.172400000 H       362 pe       0.041986755
     2185 H5           14.683000000        41.734100000        31.463200000 H       362 pe       0.041986755
     2186 H6           12.479500000        42.376500000        31.170600000 H       362 pe       0.041986755
     2187 H8           12.562000000        40.980900000        30.079700000 H       362 pe       0.041986755
     2188 C1           12.535000000        42.924100000        29.095500000 C.3     363 pe      -0.084813245
     2189 C2           11.120300000        42.607900000        28.586800000 C.3     363 pe      -0.084813245
     2190 H4           13.256000000        42.855200000        28.284700000 H       363 pe       0.041986755
     2191 H5           12.542700000        43.947400000        29.471200000 H       363 pe       0.041986755
     2192 H6           10.681000000        43.525100000        28.194900000 H       363 pe       0.041986755
     2193 H8           10.512900000        42.284100000        29.431600000 H       363 pe       0.041986755
     2194 C1           11.064900000        41.517700000        27.497800000 C.3     364 pe      -0.084813245
     2195 C2           11.701100000        41.986000000        26.175100000 C.3     364 pe      -0.084813245
     2196 H4           10.012200000        41.288500000        27.343100000 H       364 pe       0.041986755
     2197 H5           11.569700000        40.615600000        27.841300000 H       364 pe       0.041986755
     2198 H6           12.769000000        41.775800000        26.206500000 H       364 pe       0.041986755
     2199 H8           11.575500000        43.064000000        26.096300000 H       364 pe       0.041986755
     2200 C1           11.057500000        41.373600000        24.912200000 C.3     365 pe      -0.084813245
     2201 C2           11.964000000        40.397600000        24.140200000 C.3     365 pe      -0.084813245
     2202 H4           10.852400000        42.200300000        24.240300000 H       365 pe       0.041986755
     2203 H5           10.098000000        40.909500000        25.130100000 H       365 pe       0.041986755
     2204 H6           13.014500000        40.613300000        24.327600000 H       365 pe       0.041986755
     2205 H8           11.784400000        40.553800000        23.076200000 H       365 pe       0.041986755
     2206 C1           11.631400000        38.927000000        24.445100000 C.3     366 pe      -0.084813245
     2207 C2           12.893000000        38.084100000        24.653600000 C.3     366 pe      -0.084813245
     2208 H4           11.085600000        38.525200000        23.591100000 H       366 pe       0.041986755
     2209 H5           11.006600000        38.839000000        25.332400000 H       366 pe       0.041986755
     2210 H6           13.676900000        38.425000000        23.981000000 H       366 pe       0.041986755
     2211 H8           12.657800000        37.045800000        24.421500000 H       366 pe       0.041986755
     2212 C1           13.338900000        38.161600000        26.120400000 C.3     367 pe      -0.084813245
     2213 C2           14.768000000        37.645000000        26.317100000 C.3     367 pe      -0.084813245
     2214 H4           12.665800000        37.543900000        26.714300000 H       367 pe       0.041986755
     2215 H5           13.280500000        39.187500000        26.479200000 H       367 pe       0.041986755
     2216 H6           14.966900000        36.818500000        25.643900000 H       367 pe       0.041986755
     2217 H8           14.854100000        37.288800000        27.342900000 H       367 pe       0.041986755
     2218 C1           15.772800000        38.784400000        26.105100000 C.3     368 pe      -0.084813245
     2219 C2           17.224000000        38.323400000        25.905900000 C.3     368 pe      -0.084813245
     2220 H4           15.726600000        39.405400000        26.989700000 H       368 pe       0.041986755
     2221 H5           15.488200000        39.387200000        25.243900000 H       368 pe       0.041986755
     2222 H6           17.856600000        39.210500000        25.891100000 H       368 pe       0.041986755
     2223 H8           17.317000000        37.816200000        24.949300000 H       368 pe       0.041986755
     2224 C1           17.688400000        37.366300000        27.010400000 C.3     369 pe      -0.084813245
     2225 C2           19.215300000        37.222400000        27.030900000 C.3     369 pe      -0.084813245
     2226 H4           17.270300000        36.380500000        26.809400000 H       369 pe       0.041986755
     2227 H5           17.333300000        37.703400000        27.983700000 H       369 pe       0.041986755
     2228 H6           19.584300000        37.098000000        26.012200000 H       369 pe       0.041986755
     2229 H8           19.439300000        36.320100000        27.595500000 H       369 pe       0.041986755
     2230 C1           19.911000000        38.433600000        27.677400000 C.3     370 pe      -0.084813245
     2231 C2           20.890200000        38.025900000        28.793500000 C.3     370 pe      -0.084813245
     2232 H4           19.167500000        39.087700000        28.128900000 H       370 pe       0.041986755
     2233 H5           20.422400000        39.006500000        26.906400000 H       370 pe       0.041986755
     2234 H6           20.331400000        37.475000000        29.550100000 H       370 pe       0.041986755
     2235 H8           21.262100000        38.933600000        29.267200000 H       370 pe       0.041986755
     2236 C1           22.090100000        37.154900000        28.363100000 C.3     371 pe      -0.084813245
     2237 C2           22.936000000        37.697200000        27.199100000 C.3     371 pe      -0.084813245
     2238 H4           21.738800000        36.162000000        28.087000000 H       371 pe       0.041986755
     2239 H5           22.741500000        37.041700000        29.229500000 H       371 pe       0.041986755
     2240 H6           22.343000000        37.713600000        26.287300000 H       371 pe       0.041986755
     2241 H8           23.763900000        37.003600000        27.055600000 H       371 pe       0.041986755
     2242 C1           23.505700000        39.093500000        27.494800000 C.3     372 pe      -0.084813245
     2243 C2           24.481600000        39.560300000        26.407600000 C.3     372 pe      -0.084813245
     2244 H4           24.050200000        39.052700000        28.438000000 H       372 pe       0.041986755
     2245 H5           22.701400000        39.817900000        27.584500000 H       372 pe       0.041986755
     2246 H6           24.850300000        38.710700000        25.837500000 H       372 pe       0.041986755
     2247 H8           25.326900000        40.030000000        26.908700000 H       372 pe       0.041986755
     2248 C1           23.883100000        40.594100000        25.445200000 C.3     373 pe      -0.084813245
     2249 C2           22.878000000        39.978600000        24.461000000 C.3     373 pe      -0.084813245
     2250 H4           24.712000000        41.026900000        24.893900000 H       373 pe       0.041986755
     2251 H5           23.397300000        41.396100000        25.998000000 H       373 pe       0.041986755
     2252 H6           21.886600000        40.012300000        24.911900000 H       373 pe       0.041986755
     2253 H8           23.130300000        38.943200000        24.245700000 H       373 pe       0.041986755
     2254 C1           22.851700000        40.790500000        23.159900000 C.3     374 pe      -0.084813245
     2255 C2           23.972000000        40.394300000        22.177800000 C.3     374 pe      -0.084813245
     2256 H4           22.961900000        41.843300000        23.416800000 H       374 pe       0.041986755
     2257 H5           21.882200000        40.662700000        22.679100000 H       374 pe       0.041986755
     2258 H6           24.926400000        40.355600000        22.688700000 H       374 pe       0.041986755
     2259 H8           24.032500000        41.154300000        21.406500000 H       374 pe       0.041986755
     2260 C1           23.734300000        39.029000000        21.525100000 C.3     375 pe      -0.084813245
     2261 C2           24.355800000        38.936300000        20.125200000 C.3     375 pe      -0.084813245
     2262 H4           22.664800000        38.858200000        21.423300000 H       375 pe       0.041986755
     2263 H5           24.142600000        38.254900000        22.163400000 H       375 pe       0.041986755
     2264 H6           23.920600000        39.733200000        19.543600000 H       375 pe       0.041986755
     2265 H8           24.044600000        37.989000000        19.698900000 H       375 pe       0.041986755
     2266 C1           25.886700000        39.099900000        20.064200000 C.3     376 pe      -0.084813245
     2267 C2           26.622000000        38.494400000        18.845400000 C.3     376 pe      -0.084813245
     2268 H4           26.319300000        38.659700000        20.954000000 H       376 pe       0.041986755
     2269 H5           26.097300000        40.163000000        20.073500000 H       376 pe       0.041986755
     2270 H6           26.788700000        37.435700000        19.003200000 H       376 pe       0.041986755
     2271 H8           27.590400000        38.987700000        18.778200000 H       376 pe       0.041986755
     2272 C1           25.912700000        38.660400000        17.500200000 C.3     377 pe      -0.084813245
     2273 C2           26.616100000        37.904500000        16.354400000 C.3     377 pe      -0.084813245
     2274 H4           25.889500000        39.717700000        17.248900000 H       377 pe       0.041986755
     2275 H5           24.900600000        38.303000000        17.602200000 H       377 pe       0.041986755
     2276 H6           27.651900000        37.696600000        16.617900000 H       377 pe       0.041986755
     2277 H8           26.636900000        38.583700000        15.510000000 H       377 pe       0.041986755
     2278 C1           25.881400000        36.624700000        15.884500000 C.3     378 pe      -0.084813245
     2279 C2           26.609900000        35.327700000        16.291900000 C.3     378 pe      -0.084813245
     2280 H4           25.834200000        36.643100000        14.800800000 H       378 pe       0.041986755
     2281 H5           24.859400000        36.624600000        16.231800000 H       378 pe       0.041986755
     2282 H6           27.263700000        35.539200000        17.115300000 H       378 pe       0.041986755
     2283 H8           27.265800000        35.110100000        15.449300000 H       378 pe       0.041986755
     2284 C1           25.754900000        34.001900000        16.478800000 C.3     379 pe      -0.084813245
     2285 C2           23.867400000        32.818700000        18.777900000 C.3     379 pe      -0.084813245
     2286 H4           26.476500000        33.329000000        16.036800000 H       379 pe       0.041986755
     2287 H5           25.378000000        34.121700000        15.479800000 H       379 pe       0.041986755
     2288 H6           24.262700000        32.781000000        19.793900000 H       379 pe       0.041986755
     2289 H8           23.710800000        31.728700000        18.801400000 H       379 pe       0.041986755
     2290 C1           22.372300000        33.110300000        19.233300000 C.3     380 pe      -0.084813245
     2291 C2           21.911100000        32.717700000        20.647100000 C.3     380 pe      -0.084813245
     2292 H4           21.765800000        32.494600000        18.573800000 H       380 pe       0.041986755
     2293 H5           22.087100000        34.155200000        19.140800000 H       380 pe       0.041986755
     2294 H6           22.602200000        33.089300000        21.400200000 H       380 pe       0.041986755
     2295 H8           21.849200000        31.636900000        20.717000000 H       380 pe       0.041986755
     2296 C1           20.519800000        33.325200000        20.950800000 C.3     381 pe      -0.084813245
     2297 C2           19.473100000        33.029700000        19.857500000 C.3     381 pe      -0.084813245
     2298 H4           20.625100000        34.405300000        21.060200000 H       381 pe       0.041986755
     2299 H5           20.164000000        32.915900000        21.896200000 H       381 pe       0.041986755
     2300 H6           19.371400000        31.952800000        19.746100000 H       381 pe       0.041986755
     2301 H8           19.799100000        33.466200000        18.921200000 H       381 pe       0.041986755
     2302 C1           18.089500000        33.619600000        20.142400000 C.3     382 pe      -0.084813245
     2303 C2           17.331700000        33.868800000        18.820400000 C.3     382 pe      -0.084813245
     2304 H4           18.190600000        34.541800000        20.701900000 H       382 pe       0.041986755
     2305 H5           17.526200000        32.907100000        20.744400000 H       382 pe       0.041986755
     2306 H6           16.312500000        33.508500000        18.957900000 H       382 pe       0.041986755
     2307 H8           17.769900000        33.305400000        18.004000000 H       382 pe       0.041986755
     2308 C1           17.235600000        35.335400000        18.373300000 C.3     383 pe      -0.084813245
     2309 C2           18.556500000        36.068500000        18.084500000 C.3     383 pe      -0.084813245
     2310 H4           16.737800000        35.906200000        19.140300000 H       383 pe       0.041986755
     2311 H5           16.594400000        35.355000000        17.499300000 H       383 pe       0.041986755
     2312 H6           19.300600000        35.797000000        18.828100000 H       383 pe       0.041986755
     2313 H8           18.369800000        37.132700000        18.198500000 H       383 pe       0.041986755
     2314 C1           19.158400000        35.813000000        16.694700000 C.3     384 pe      -0.084813245
     2315 C2           18.293900000        36.204700000        15.481600000 C.3     384 pe      -0.084813245
     2316 H4           19.368400000        34.749300000        16.620000000 H       384 pe       0.041986755
     2317 H5           20.102000000        36.349900000        16.633100000 H       384 pe       0.041986755
     2318 H6           17.571700000        35.416500000        15.347000000 H       384 pe       0.041986755
     2319 H8           18.917600000        36.236200000        14.590900000 H       384 pe       0.041986755
     2320 C1           17.481700000        37.501600000        15.573200000 C.3     385 pe      -0.084813245
     2321 C2           18.318400000        38.766700000        15.558600000 C.3     385 pe      -0.084813245
     2322 H4           16.868100000        37.488400000        16.466900000 H       385 pe       0.041986755
     2323 H5           16.837300000        37.543900000        14.700200000 H       385 pe       0.041986755
     2324 H6           18.651400000        38.941900000        14.540600000 H       385 pe       0.041986755
     2325 H8           19.179200000        38.629500000        16.196700000 H       385 pe       0.041986755
     2326 C1           17.485700000        39.950400000        16.072000000 C.3     386 pe      -0.084813245
     2327 C2           17.418300000        41.061100000        15.029300000 C.3     386 pe      -0.084813245
     2328 H4           17.961400000        40.348300000        16.964600000 H       386 pe       0.041986755
     2329 H5           16.470300000        39.660700000        16.337200000 H       386 pe       0.041986755
     2330 H6           18.421100000        41.277800000        14.667200000 H       386 pe       0.041986755
     2331 H8           17.040700000        41.938900000        15.539900000 H       386 pe       0.041986755
     2332 C1           16.452800000        40.720400000        13.881600000 C.3     387 pe      -0.084813245
     2333 C2           17.161900000        40.686500000        12.527300000 C.3     387 pe      -0.084813245
     2334 H4           15.663200000        41.461500000        13.857700000 H       387 pe       0.041986755
     2335 H5           15.992400000        39.750300000        14.044900000 H       387 pe       0.041986755
     2336 H6           17.591300000        39.693900000        12.408100000 H       387 pe       0.041986755
     2337 H8           17.954100000        41.431900000        12.474700000 H       387 pe       0.041986755
     2338 C1           16.177900000        40.956500000        11.385900000 C.3     388 pe      -0.084813245
     2339 C2           16.814000000        40.356300000        10.135500000 C.3     388 pe      -0.084813245
     2340 H4           16.047400000        42.029200000        11.262900000 H       388 pe       0.041986755
     2341 H5           15.224600000        40.477500000        11.595800000 H       388 pe       0.041986755
     2342 H6           16.705600000        39.274200000        10.156800000 H       388 pe       0.041986755
     2343 H8           17.861000000        40.614000000        10.193400000 H       388 pe       0.041986755
     2344 C1           16.373400000        40.883900000         8.773290000 C.3     389 pe      -0.084813245
     2345 C2           14.884600000        40.743300000         8.464960000 C.3     389 pe      -0.084813245
     2346 H4           16.911900000        40.274200000         8.056530000 H       389 pe       0.041986755
     2347 H5           16.699900000        41.915700000         8.671120000 H       389 pe       0.041986755
     2348 H6           14.379000000        40.347100000         9.337530000 H       389 pe       0.041986755
     2349 H8           14.738900000        40.060700000         7.629090000 H       389 pe       0.041986755
     2350 C1           14.231200000        42.091400000         8.185390000 C.3     390 pe      -0.084813245
     2351 C2           14.245800000        42.593100000         6.740170000 C.3     390 pe      -0.084813245
     2352 H4           14.708100000        42.842700000         8.802870000 H       390 pe       0.041986755
     2353 H5           13.198600000        41.968000000         8.492950000 H       390 pe       0.041986755
     2354 H6           14.105200000        41.753500000         6.066490000 H       390 pe       0.041986755
     2355 H8           15.197300000        43.079600000         6.531850000 H       390 pe       0.041986755
     2356 C1           13.091000000        43.607800000         6.621000000 C.3     391 pe      -0.084813245
     2357 C2           12.904100000        44.293400000         5.258560000 C.3     391 pe      -0.084813245
     2358 H4           13.262000000        44.398300000         7.350970000 H       391 pe       0.041986755
     2359 H5           12.149700000        43.125000000         6.875150000 H       391 pe       0.041986755
     2360 H6           13.507600000        45.196400000         5.267750000 H       391 pe       0.041986755
     2361 H8           11.864400000        44.605200000         5.164130000 H       391 pe       0.041986755
     2362 C1           13.318300000        43.515600000         4.001620000 C.3     392 pe      -0.084813245
     2363 C2           12.638600000        42.182200000         3.644690000 C.3     392 pe      -0.084813245
     2364 H4           14.388900000        43.336900000         4.047810000 H       392 pe       0.041986755
     2365 H5           13.135700000        44.183300000         3.162120000 H       392 pe       0.041986755
     2366 H6           13.437100000        41.442800000         3.616000000 H       392 pe       0.041986755
     2367 H8           12.244700000        42.294800000         2.635380000 H       392 pe       0.041986755
     2368 C1           11.513200000        41.650700000         4.554320000 C.3     393 pe      -0.084813245
     2369 C2           10.606500000        40.665900000         3.814420000 C.3     393 pe      -0.084813245
     2370 H4           10.871600000        42.467300000         4.878160000 H       393 pe       0.041986755
     2371 H5           11.933400000        41.143400000         5.418980000 H       393 pe       0.041986755
     2372 H6           10.156100000        41.208300000         2.996830000 H       393 pe       0.041986755
     2373 H8            9.804850000        40.358200000         4.483780000 H       393 pe       0.041986755
     2374 C1           11.322300000        39.402600000         3.303680000 C.3     394 pe      -0.084813245
     2375 C2           10.520400000        38.764500000         2.168000000 C.3     394 pe      -0.084813245
     2376 H4           11.391500000        38.692100000         4.127970000 H       394 pe       0.041986755
     2377 H5           12.323100000        39.600800000         2.932810000 H       394 pe       0.041986755
     2378 H6            9.492660000        38.675100000         2.494350000 H       394 pe       0.041986755
     2379 H8           10.919300000        37.764900000         2.001630000 H       394 pe       0.041986755
     2380 C1           10.625600000        39.538200000         0.837914000 C.3     395 pe      -0.084813245
     2381 C2            9.270100000        39.736200000         0.131196000 C.3     395 pe      -0.084813245
     2382 H4           11.247300000        38.934600000         0.177038000 H       395 pe       0.041986755
     2383 H5           11.126900000        40.495500000         0.968446000 H       395 pe       0.041986755
     2384 H6            8.609080000        38.904800000         0.357288000 H       395 pe       0.041986755
     2385 H8            9.475750000        39.720400000        -0.937000000 H       395 pe       0.041986755
     2386 C1            8.561080000        41.078400000         0.397988000 C.3     396 pe      -0.084813245
     2387 C2            7.117710000        40.927000000         0.906720000 C.3     396 pe      -0.084813245
     2388 H4            8.506910000        41.599500000        -0.557300000 H       396 pe       0.041986755
     2389 H5            9.125040000        41.709700000         1.076340000 H       396 pe       0.041986755
     2390 H6            6.596920000        40.198200000         0.291302000 H       396 pe       0.041986755
     2391 H8            6.631260000        41.890700000         0.775686000 H       396 pe       0.041986755
     2392 C1            7.050310000        40.512800000         2.388440000 C.3     397 pe      -0.084813245
     2393 C2            5.626890000        40.492100000         2.961110000 C.3     397 pe      -0.084813245
     2394 H4            7.673250000        41.173500000         2.983450000 H       397 pe       0.041986755
     2395 H5            7.420550000        39.498300000         2.482940000 H       397 pe       0.041986755
     2396 H6            5.633200000        39.901300000         3.876890000 H       397 pe       0.041986755
     2397 H8            4.973450000        39.998500000         2.249910000 H       397 pe       0.041986755
     2398 C1            5.033690000        41.876800000         3.250580000 C.3     398 pe      -0.084813245
     2399 C2            5.191590000        42.313400000         4.710250000 C.3     398 pe      -0.084813245
     2400 H4            3.965510000        41.811500000         3.050740000 H       398 pe       0.041986755
     2401 H5            5.451450000        42.637700000         2.596080000 H       398 pe       0.041986755
     2402 H6            4.858890000        41.523800000         5.384160000 H       398 pe       0.041986755
     2403 H8            4.545570000        43.165000000         4.840340000 H       398 pe       0.041986755
     2404 C1            6.607370000        42.758700000         5.082170000 C.3     399 pe      -0.084813245
     2405 C2            6.564800000        43.695000000         6.296760000 C.3     399 pe      -0.084813245
     2406 H4            7.083320000        43.276800000         4.250990000 H       399 pe       0.041986755
     2407 H5            7.186700000        41.873000000         5.337450000 H       399 pe       0.041986755
     2408 H6            7.542930000        43.668400000         6.757780000 H       399 pe       0.041986755
     2409 H8            5.823010000        43.340900000         7.012950000 H       399 pe       0.041986755
     2410 C1            6.298560000        45.160900000         5.925020000 C.3     400 pe      -0.084813245
     2411 C2            6.048000000        45.976135000         7.197520000 C.3     400 pe      -0.084813245
     2412 H4            5.431970000        45.255200000         5.273520000 H       400 pe       0.041986755
     2413 H5            7.174820000        45.560694000         5.414610000 H       400 pe       0.041986755
     2414 H6            6.017870000        47.035790000         6.945200000 H       400 pe       0.041986755
     2415 H7            5.094480000        45.685181000         7.638570000 H       400 pe       0.041986755
     2416 H8            6.849130000        45.800198000         7.915580000 H       400 pe       0.041986755
     2417 C1           58.486700000        35.150600000        43.632800000 C.3     401 pe      -0.084813245
     2418 C2           57.360800000        35.784400000        42.811200000 C.3     401 pe      -0.084813245
     2419 H3           58.387300000        34.065000000        43.621500000 H       401 pe       0.041986755
     2420 H4           59.446400000        35.421500000        43.193500000 H       401 pe       0.041986755
     2421 H5           58.444800000        35.513600000        44.659200000 H       401 pe       0.041986755
     2422 H6           57.417400000        35.385600000        41.801200000 H       401 pe       0.041986755
     2423 H8           57.505500000        36.863900000        42.778700000 H       401 pe       0.041986755
     2424 C1           55.990700000        35.473600000        43.430400000 C.3     402 pe      -0.084813245
     2425 C2           54.859370000        35.821700000        42.455900000 C.3     402 pe      -0.084813245
     2426 H4           55.891100000        36.031300000        44.359200000 H       402 pe       0.041986755
     2427 H5           55.923100000        34.409200000        43.636500000 H       402 pe       0.041986755
     2428 H6           54.351870000        34.904700000        42.155600000 H       402 pe       0.041986755
     2429 H8           55.291790000        36.287600000        41.575700000 H       402 pe       0.041986755
     2430 C1           53.830830000        36.816400000        42.998500000 C.3     403 pe      -0.084813245
     2431 C2           53.067220000        36.341000000        44.240400000 C.3     403 pe      -0.084813245
     2432 H4           53.119980000        36.986300000        42.200200000 H       403 pe       0.041986755
     2433 H5           54.333080000        37.754600000        43.217400000 H       403 pe       0.041986755
     2434 H6           53.654770000        36.602500000        45.107500000 H       403 pe       0.041986755
     2435 H8           52.911190000        35.263500000        44.200400000 H       403 pe       0.041986755
     2436 C1           51.703500000        37.036500000        44.310300000 C.3     404 pe      -0.084813245
     2437 C2           51.082590000        37.089100000        45.714493000 C.3     404 pe      -0.084813245
     2438 H4           51.050110000        36.459500000        43.662300000 H       404 pe       0.041986755
     2439 H5           51.803310000        38.058800000        43.946800000 H       404 pe       0.041986755
     2440 H6           51.779220000        37.577500000        46.393620000 H       404 pe       0.041986755
     2441 H8           50.899630000        36.082500000        46.068682000 H       404 pe       0.041986755
     2442 C1           49.759350000        37.873700000        45.758513000 C.3     405 pe      -0.084813245
     2443 C2           48.681200000        37.336100000        44.811200000 C.3     405 pe      -0.084813245
     2444 H4           49.956160000        38.909000000        45.489918000 H       405 pe       0.041986755
     2445 H5           49.375890000        37.833500000        46.778210000 H       405 pe       0.041986755
     2446 H6           48.517720000        36.276500000        44.993200000 H       405 pe       0.041986755
     2447 H8           49.017280000        37.468000000        43.790300000 H       405 pe       0.041986755
     2448 C1           47.361460000        38.101000000        44.999400000 C.3     406 pe      -0.084813245
     2449 C2           46.663650000        38.313500000        43.647700000 C.3     406 pe      -0.084813245
     2450 H4           47.539510000        39.069800000        45.466478000 H       406 pe       0.041986755
     2451 H5           46.710270000        37.516200000        45.648467000 H       406 pe       0.041986755
     2452 H6           45.612658000        38.537000000        43.830900000 H       406 pe       0.041986755
     2453 H8           46.722160000        37.393900000        43.066800000 H       406 pe       0.041986755
     2454 C1           47.280930000        39.502600000        42.885200000 C.3     407 pe      -0.084813245
     2455 C2           47.260370000        39.307200000        41.358400000 C.3     407 pe      -0.084813245
     2456 H4           48.301680000        39.683000000        43.216000000 H       407 pe       0.041986755
     2457 H5           46.690440000        40.387700000        43.122600000 H       407 pe       0.041986755
     2458 H6           47.342340000        40.282100000        40.877900000 H       407 pe       0.041986755
     2459 H8           46.302812000        38.871300000        41.076500000 H       407 pe       0.041986755
     2460 C1           48.391400000        38.403200000        40.833300000 C.3     408 pe      -0.084813245
     2461 C2           49.720010000        39.162800000        40.650600000 C.3     408 pe      -0.084813245
     2462 H4           48.081740000        38.037200000        39.862100000 H       408 pe       0.041986755
     2463 H5           48.514610000        37.546500000        41.489200000 H       408 pe       0.041986755
     2464 H6           49.752330000        39.986800000        41.361300000 H       408 pe       0.041986755
     2465 H8           49.763280000        39.588900000        39.649100000 H       408 pe       0.041986755
     2466 C1           50.967470000        38.302300000        40.925900000 C.3     409 pe      -0.084813245
     2467 C2           51.496140000        37.425200000        39.773600000 C.3     409 pe      -0.084813245
     2468 H4           50.768060000        37.683200000        41.786200000 H       409 pe       0.041986755
     2469 H5           51.768240000        38.993600000        41.188300000 H       409 pe       0.041986755
     2470 H6           52.584710000        37.438900000        39.825400000 H       409 pe       0.041986755
     2471 H8           51.200630000        37.884800000        38.843400000 H       409 pe       0.041986755
     2472 C1           51.043240000        35.950500000        39.856600000 C.3     410 pe      -0.084813245
     2473 C2           51.659470000        35.047800000        38.730300000 C.3     410 pe      -0.084813245
     2474 H4           49.961020000        35.921900000        39.840300000 H       410 pe       0.041986755
     2475 H5           51.376990000        35.634400000        40.834700000 H       410 pe       0.041986755
     2476 H6           52.606340000        34.665000000        39.079300000 H       410 pe       0.041986755
     2477 H8           51.852060000        35.744900000        37.976200000 H       410 pe       0.041986755
     2478 C1           50.860520000        33.876800000        38.057700000 C.3     411 pe      -0.084813245
     2479 C2           51.296580000        33.053900000        36.799800000 C.3     411 pe      -0.084813245
     2480 H4           49.826840000        34.137400000        37.920900000 H       411 pe       0.041986755
     2481 H5           50.903960000        33.153500000        38.801300000 H       411 pe       0.041986755
     2482 H6           52.368160000        32.865400000        36.797000000 H       411 pe       0.041986755
     2483 H8           51.071250000        33.635800000        35.915600000 H       411 pe       0.041986755
     2484 C1           50.477060000        31.727300000        36.594600000 C.3     412 pe      -0.084813245
     2485 C2           51.148930000        30.321300000        36.747200000 C.3     412 pe      -0.084813245
     2486 H4           50.177730000        31.759900000        35.551200000 H       412 pe       0.041986755
     2487 H5           49.548730000        31.766900000        37.142000000 H       412 pe       0.041986755
     2488 H6           52.170380000        30.429600000        37.033100000 H       412 pe       0.041986755
     2489 H8           51.167830000        29.906000000        35.740000000 H       412 pe       0.041986755
     2490 C1           50.517790000        29.204900000        37.640600000 C.3     413 pe      -0.084813245
     2491 C2           51.118480000        29.060100000        39.066600000 C.3     413 pe      -0.084813245
     2492 H4           50.712080000        28.263000000        37.130400000 H       413 pe       0.041986755
     2493 H5           49.456810000        29.319400000        37.672700000 H       413 pe       0.041986755
     2494 H6           51.540280000        29.990200000        39.226100000 H       413 pe       0.041986755
     2495 H8           51.867590000        28.290600000        38.996000000 H       413 pe       0.041986755
     2496 C1           50.221430000        28.790800000        40.298200000 C.3     414 pe      -0.084813245
     2497 C2           50.458080000        28.846200000        41.842800000 C.3     414 pe      -0.084813245
     2498 H4           50.114090000        27.756600000        40.234000000 H       414 pe       0.041986755
     2499 H5           49.291510000        29.190600000        40.069700000 H       414 pe       0.041986755
     2500 H6           51.491630000        28.610000000        42.045300000 H       414 pe       0.041986755
     2501 H8           49.824300000        28.046300000        42.148800000 H       414 pe       0.041986755
     2502 C1           50.068700000        30.055600000        42.724700000 C.3     415 pe      -0.084813245
     2503 C2           48.864750000        30.277700000        43.704300000 C.3     415 pe      -0.084813245
     2504 H4           49.766110000        30.630100000        41.924500000 H       415 pe       0.041986755
     2505 H5           50.960140000        30.508200000        43.129600000 H       415 pe       0.041986755
     2506 H6           47.985490000        29.876800000        43.259700000 H       415 pe       0.041986755
     2507 H8           48.716100000        31.350900000        43.732700000 H       415 pe       0.041986755
     2508 C1           48.950500000        29.829000000        45.182500000 C.3     416 pe      -0.084813245
     2509 C2           47.761990000        29.967500000        46.148510000 C.3     416 pe      -0.084813245
     2510 H4           49.727620000        30.364300000        45.679177000 H       416 pe       0.041986755
     2511 H5           49.210350000        28.805700000        45.147500000 H       416 pe       0.041986755
     2512 H6           47.022220000        29.246700000        45.882637000 H       416 pe       0.041986755
     2513 H8           47.344490000        30.966100000        46.085221000 H       416 pe       0.041986755
     2514 C1           48.181350000        29.658600000        47.605140000 C.3     417 pe      -0.084813245
     2515 C2           47.035680000        29.151900000        48.512490000 C.3     417 pe      -0.084813245
     2516 H4           48.575700000        30.571200000        48.047410000 H       417 pe       0.041986755
     2517 H5           48.973460000        28.912500000        47.612600000 H       417 pe       0.041986755
     2518 H6           46.182278000        29.822000000        48.423510000 H       417 pe       0.041986755
     2519 H8           47.389530000        29.176500000        49.543470000 H       417 pe       0.041986755
     2520 C1           46.597410000        27.708600000        48.194020000 C.3     418 pe      -0.084813245
     2521 C2           45.625470000        27.129500000        49.229490000 C.3     418 pe      -0.084813245
     2522 H4           47.471480000        27.059700000        48.183900000 H       418 pe       0.041986755
     2523 H5           46.117231000        27.697900000        47.221280000 H       418 pe       0.041986755
     2524 H6           44.952200000        27.908500000        49.584290000 H       418 pe       0.041986755
     2525 H8           46.222700000        26.769900000        50.063630000 H       418 pe       0.041986755
     2526 C1           44.837700000        25.932200000        48.655640000 C.3     419 pe      -0.084813245
     2527 C2           43.315400000        26.163400000        48.658930000 C.3     419 pe      -0.084813245
     2528 H4           45.084700000        25.035900000        49.223700000 H       419 pe       0.041986755
     2529 H5           45.137100000        25.744900000        47.625660000 H       419 pe       0.041986755
     2530 H6           42.892300000        25.608100000        47.833330000 H       419 pe       0.041986755
     2531 H8           43.096500000        27.212700000        48.479940000 H       419 pe       0.041986755
     2532 C1           42.633400000        25.736100000        49.968940000 C.3     420 pe      -0.084813245
     2533 C2           41.502500000        24.706100000        49.788690000 C.3     420 pe      -0.084813245
     2534 H4           42.196900000        26.629600000        50.414430000 H       420 pe       0.041986755
     2535 H5           43.358000000        25.339000000        50.671440000 H       420 pe       0.041986755
     2536 H6           40.733500000        25.113600000        49.142680000 H       420 pe       0.041986755
     2537 H8           41.051100000        24.579500000        50.772550000 H       420 pe       0.041986755
     2538 C1           41.961400000        23.298400000        49.340580000 C.3     421 pe      -0.084813245
     2539 C2           41.816800000        22.918100000        47.847930000 C.3     421 pe      -0.084813245
     2540 H4           41.376800000        22.577200000        49.912360000 H       421 pe       0.041986755
     2541 H5           43.005300000        23.164300000        49.621970000 H       421 pe       0.041986755
     2542 H6           42.123100000        21.875400000        47.765700000 H       421 pe       0.041986755
     2543 H8           42.487100000        23.498300000        47.220100000 H       421 pe       0.041986755
     2544 C1           40.380200000        22.998500000        47.308120000 C.3     422 pe      -0.084813245
     2545 C2           40.166200000        24.250300000        46.429970000 C.3     422 pe      -0.084813245
     2546 H4           39.701600000        22.962300000        48.154080000 H       422 pe       0.041986755
     2547 H5           40.207700000        22.118800000        46.690760000 H       422 pe       0.041986755
     2548 H6           40.701200000        24.095000000        45.493528000 H       422 pe       0.041986755
     2549 H8           40.586100000        25.124100000        46.913890000 H       422 pe       0.041986755
     2550 C1           38.703700000        24.573800000        46.079757000 C.3     423 pe      -0.084813245
     2551 C2           37.850200000        24.928600000        47.307370000 C.3     423 pe      -0.084813245
     2552 H4           38.257200000        23.743400000        45.551655000 H       423 pe       0.041986755
     2553 H5           38.716000000        25.418400000        45.400728500 H       423 pe       0.041986755
     2554 H6           38.322200000        25.747600000        47.843070000 H       423 pe       0.041986755
     2555 H8           37.815100000        24.069200000        47.956950000 H       423 pe       0.041986755
     2556 C1           36.408500000        25.301900000        46.907400000 C.3     424 pe      -0.084813245
     2557 C2           35.311400000        25.247900000        47.994380000 C.3     424 pe      -0.084813245
     2558 H4           36.086300000        24.622600000        46.122767000 H       424 pe       0.041986755
     2559 H5           36.403000000        26.300300000        46.484160000 H       424 pe       0.041986755
     2560 H6           34.650600000        24.419800000        47.753420000 H       424 pe       0.041986755
     2561 H8           34.722500000        26.158000000        47.881480000 H       424 pe       0.041986755
     2562 C1           35.709200000        25.161300000        49.483870000 C.3     425 pe      -0.084813245
     2563 C2           35.168600000        23.913700000        50.209760000 C.3     425 pe      -0.084813245
     2564 H4           35.242800000        26.017000000        49.970800000 H       425 pe       0.041986755
     2565 H5           36.777000000        25.248400000        49.656780000 H       425 pe       0.041986755
     2566 H6           34.085600000        23.865800000        50.100290000 H       425 pe       0.041986755
     2567 H8           35.374500000        24.071700000        51.268170000 H       425 pe       0.041986755
     2568 C1           35.825700000        22.564600000        49.840650000 C.3     426 pe      -0.084813245
     2569 C2           35.068000000        21.748000000        48.775170000 C.3     426 pe      -0.084813245
     2570 H4           35.818200000        21.961200000        50.747940000 H       426 pe       0.041986755
     2571 H5           36.865700000        22.707300000        49.559820000 H       426 pe       0.041986755
     2572 H6           34.101300000        22.203100000        48.569090000 H       426 pe       0.041986755
     2573 H8           34.875500000        20.759200000        49.186380000 H       426 pe       0.041986755
     2574 C1           35.817300000        21.613400000        47.437160000 C.3     427 pe      -0.084813245
     2575 C2           36.832100000        20.458600000        47.390510000 C.3     427 pe      -0.084813245
     2576 H4           36.340700000        22.528500000        47.218670000 H       427 pe       0.041986755
     2577 H5           35.078500000        21.481200000        46.653990000 H       427 pe       0.041986755
     2578 H6           36.493900000        19.631500000        48.011300000 H       427 pe       0.041986755
     2579 H8           37.788200000        20.812000000        47.776100000 H       427 pe       0.041986755
     2580 C1           37.024700000        19.914300000        45.963563000 C.3     428 pe      -0.084813245
     2581 C2           37.435100000        21.003400000        44.962900000 C.3     428 pe      -0.084813245
     2582 H4           36.100600000        19.445500000        45.626894000 H       428 pe       0.041986755
     2583 H5           37.809800000        19.160000000        46.001821000 H       428 pe       0.041986755
     2584 H6           38.265100000        21.554900000        45.383090700 H       428 pe       0.041986755
     2585 H8           36.603000000        21.680800000        44.778400000 H       428 pe       0.041986755
     2586 C1           37.865700000        20.415300000        43.617200000 C.3     429 pe      -0.084813245
     2587 C2           39.398500000        20.389500000        43.498500000 C.3     429 pe      -0.084813245
     2588 H4           37.467000000        21.047300000        42.824600000 H       429 pe       0.041986755
     2589 H5           37.448200000        19.418700000        43.505400000 H       429 pe       0.041986755
     2590 H6           39.864600000        20.175800000        44.460400000 H       429 pe       0.041986755
     2591 H8           39.732400000        21.369800000        43.157500000 H       429 pe       0.041986755
     2592 C1           39.846700000        19.332000000        42.483500000 C.3     430 pe      -0.084813245
     2593 C2           40.108600000        17.988200000        43.183600000 C.3     430 pe      -0.084813245
     2594 H4           40.776000000        19.663300000        42.020100000 H       430 pe       0.041986755
     2595 H5           39.089600000        19.229400000        41.708700000 H       430 pe       0.041986755
     2596 H6           39.475700000        17.877100000        44.058600000 H       430 pe       0.041986755
     2597 H8           41.146700000        17.982400000        43.516000000 H       430 pe       0.041986755
     2598 C1           39.894700000        16.801900000        42.231300000 C.3     431 pe      -0.084813245
     2599 C2           38.419800000        16.366000000        42.099300000 C.3     431 pe      -0.084813245
     2600 H4           40.493900000        15.960800000        42.579900000 H       431 pe       0.041986755
     2601 H5           40.263600000        17.084000000        41.245300000 H       431 pe       0.041986755
     2602 H6           38.349000000        15.741600000        41.209000000 H       431 pe       0.041986755
     2603 H8           37.778600000        17.233300000        41.954800000 H       431 pe       0.041986755
     2604 C1           37.914800000        15.523000000        43.285500000 C.3     432 pe      -0.084813245
     2605 C2           36.922200000        16.265000000        44.193500000 C.3     432 pe      -0.084813245
     2606 H4           38.758000000        15.214000000        43.902300000 H       432 pe       0.041986755
     2607 H5           37.435600000        14.624000000        42.898800000 H       432 pe       0.041986755
     2608 H6           37.305200000        17.248500000        44.435300000 H       432 pe       0.041986755
     2609 H8           36.870300000        15.704900000        45.123000000 H       432 pe       0.041986755
     2610 C1           35.510700000        16.432500000        43.600200000 C.3     433 pe      -0.084813245
     2611 C2           34.498100000        15.732900000        44.517500000 C.3     433 pe      -0.084813245
     2612 H4           35.457600000        16.006700000        42.598600000 H       433 pe       0.041986755
     2613 H5           35.302300000        17.495800000        43.551700000 H       433 pe       0.041986755
     2614 H6           34.661800000        16.072100000        45.536106000 H       433 pe       0.041986755
     2615 H8           34.713600000        14.675600000        44.420000000 H       433 pe       0.041986755
     2616 C1           33.008400000        15.944100000        44.208600000 C.3     434 pe      -0.084813245
     2617 C2           32.069600000        15.398100000        45.304900000 C.3     434 pe      -0.084813245
     2618 H4           32.752900000        15.480500000        43.262400000 H       434 pe       0.041986755
     2619 H5           32.809300000        17.004100000        44.123200000 H       434 pe       0.041986755
     2620 H6           31.090800000        15.267400000        44.854400000 H       434 pe       0.041986755
     2621 H8           31.978000000        16.140500000        46.093951000 H       434 pe       0.041986755
     2622 C1           32.495700000        14.070600000        45.955078000 C.3     435 pe      -0.084813245
     2623 C2           31.274800000        13.317900000        46.503800000 C.3     435 pe      -0.084813245
     2624 H4           33.168200000        14.292800000        46.773710000 H       435 pe       0.041986755
     2625 H5           33.015100000        13.443200000        45.244000000 H       435 pe       0.041986755
     2626 H6           30.540200000        13.163200000        45.718331000 H       435 pe       0.041986755
     2627 H8           30.836400000        13.924700000        47.290050000 H       435 pe       0.041986755
     2628 C1           31.628800000        11.960300000        47.121090000 C.3     436 pe      -0.084813245
     2629 C2           31.220500000        10.752100000        46.258399000 C.3     436 pe      -0.084813245
     2630 H4           31.082200000        11.882500000        48.060750000 H       436 pe       0.041986755
     2631 H5           32.687400000        11.914700000        47.352580000 H       436 pe       0.041986755
     2632 H6           30.139600000        10.750600000        46.125762000 H       436 pe       0.041986755
     2633 H8           31.474400000         9.864310000        46.837200000 H       436 pe       0.041986755
     2634 C1           31.963800000        10.625700000        44.910600000 C.3     437 pe      -0.084813245
     2635 C2           31.130300000        10.986500000        43.662200000 C.3     437 pe      -0.084813245
     2636 H4           32.238500000         9.576810000        44.803400000 H       437 pe       0.041986755
     2637 H5           32.883600000        11.195600000        44.944100000 H       437 pe       0.041986755
     2638 H6           30.098400000        11.189000000        43.943700000 H       437 pe       0.041986755
     2639 H8           31.127300000        10.119300000        43.005400000 H       437 pe       0.041986755
     2640 C1           31.619200000        12.200100000        42.852300000 C.3     438 pe      -0.084813245
     2641 C2           32.956600000        12.006300000        42.102200000 C.3     438 pe      -0.084813245
     2642 H4           31.683900000        13.068500000        43.490800000 H       438 pe       0.041986755
     2643 H5           30.833200000        12.409900000        42.134100000 H       438 pe       0.041986755
     2644 H6           32.869200000        11.198000000        41.385000000 H       438 pe       0.041986755
     2645 H8           33.744800000        11.750800000        42.800500000 H       438 pe       0.041986755
     2646 C1           33.349000000        13.325300000        41.409900000 C.3     439 pe      -0.084813245
     2647 C2           34.261000000        13.218400000        40.171100000 C.3     439 pe      -0.084813245
     2648 H4           33.924900000        13.885000000        42.139200000 H       439 pe       0.041986755
     2649 H5           32.456100000        13.899100000        41.174700000 H       439 pe       0.041986755
     2650 H6           35.093200000        12.560000000        40.419700000 H       439 pe       0.041986755
     2651 H8           34.665800000        14.211400000        39.974900000 H       439 pe       0.041986755
     2652 C1           33.624300000        12.712100000        38.862600000 C.3     440 pe      -0.084813245
     2653 C2           32.469600000        13.567300000        38.304100000 C.3     440 pe      -0.084813245
     2654 H4           33.320000000        11.685800000        38.990900000 H       440 pe       0.041986755
     2655 H5           34.402100000        12.712400000        38.104000000 H       440 pe       0.041986755
     2656 H6           32.822100000        13.996100000        37.366400000 H       440 pe       0.041986755
     2657 H8           32.226700000        14.394200000        38.968000000 H       440 pe       0.041986755
     2658 C1           31.193300000        12.763000000        37.984800000 C.3     441 pe      -0.084813245
     2659 C2           30.491800000        12.216100000        39.242900000 C.3     441 pe      -0.084813245
     2660 H4           31.427500000        11.967500000        37.288400000 H       441 pe       0.041986755
     2661 H5           30.520000000        13.452300000        37.489500000 H       441 pe       0.041986755
     2662 H6           29.903100000        13.027200000        39.667300000 H       441 pe       0.041986755
     2663 H8           31.238500000        11.952800000        39.963200000 H       441 pe       0.041986755
     2664 C1           29.555700000        10.998200000        39.086100000 C.3     442 pe      -0.084813245
     2665 C2           30.184200000         9.637430000        38.719900000 C.3     442 pe      -0.084813245
     2666 H4           28.812600000        11.229300000        38.333000000 H       442 pe       0.041986755
     2667 H5           29.039000000        10.868400000        40.037000000 H       442 pe       0.041986755
     2668 H6           30.488500000         9.677330000        37.679800000 H       442 pe       0.041986755
     2669 H8           29.401100000         8.884300000        38.799000000 H       442 pe       0.041986755
     2670 C1           31.341500000         9.215720000        39.653500000 C.3     443 pe      -0.084813245
     2671 C2           31.842100000         7.771610000        39.500900000 C.3     443 pe      -0.084813245
     2672 H4           30.998100000         9.325900000        40.679300000 H       443 pe       0.041986755
     2673 H5           32.199000000         9.856000000        39.521600000 H       443 pe       0.041986755
     2674 H6           31.048600000         7.107780000        39.835600000 H       443 pe       0.041986755
     2675 H8           32.686000000         7.637660000        40.177700000 H       443 pe       0.041986755
     2676 C1           32.282900000         7.335260000        38.090400000 C.3     444 pe      -0.084813245
     2677 C2           33.511600000         8.074930000        37.508300000 C.3     444 pe      -0.084813245
     2678 H4           31.432100000         7.366960000        37.417700000 H       444 pe       0.041986755
     2679 H5           32.574500000         6.288270000        38.179600000 H       444 pe       0.041986755
     2680 H6           34.008300000         7.385130000        36.826400000 H       444 pe       0.041986755
     2681 H8           34.206700000         8.293470000        38.318300000 H       444 pe       0.041986755
     2682 C1           33.244600000         9.376940000        36.722900000 C.3     445 pe      -0.084813245
     2683 C2           32.540500000         9.099370000        35.388600000 C.3     445 pe      -0.084813245
     2684 H4           34.198600000         9.862720000        36.533000000 H       445 pe       0.041986755
     2685 H5           32.648000000        10.054300000        37.306900000 H       445 pe       0.041986755
     2686 H6           31.580400000         8.654600000        35.609100000 H       445 pe       0.041986755
     2687 H8           33.154700000         8.407480000        34.816900000 H       445 pe       0.041986755
     2688 C1           32.259500000        10.348800000        34.542000000 C.3     446 pe      -0.084813245
     2689 C2           31.973200000         9.989150000        33.069800000 C.3     446 pe      -0.084813245
     2690 H4           33.134100000        10.998100000        34.567200000 H       446 pe       0.041986755
     2691 H5           31.406900000        10.887800000        34.955300000 H       446 pe       0.041986755
     2692 H6           32.839900000         9.478160000        32.663300000 H       446 pe       0.041986755
     2693 H8           31.854100000        10.924400000        32.523200000 H       446 pe       0.041986755
     2694 C1           30.693500000         9.159150000        32.828200000 C.3     447 pe      -0.084813245
     2695 C2           30.884600000         7.904940000        31.940100000 C.3     447 pe      -0.084813245
     2696 H4           30.001200000         9.809950000        32.294000000 H       447 pe       0.041986755
     2697 H5           30.207000000         8.897120000        33.763000000 H       447 pe       0.041986755
     2698 H6           31.242100000         8.241660000        30.967100000 H       447 pe       0.041986755
     2699 H8           29.903300000         7.455130000        31.791200000 H       447 pe       0.041986755
     2700 C1           31.849200000         6.799340000        32.430500000 C.3     448 pe      -0.084813245
     2701 C2           31.447300000         6.134040000        33.755500000 C.3     448 pe      -0.084813245
     2702 H4           32.849800000         7.208160000        32.546900000 H       448 pe       0.041986755
     2703 H5           31.905200000         6.028130000        31.661900000 H       448 pe       0.041986755
     2704 H6           31.020000000         6.868120000        34.418900000 H       448 pe       0.041986755
     2705 H8           32.345200000         5.730890000        34.224400000 H       448 pe       0.041986755
     2706 C1           30.448100000         4.986760000        33.584900000 C.3     449 pe      -0.084813245
     2707 C2           29.459600000         4.953430000        34.757700000 C.3     449 pe      -0.084813245
     2708 H4           31.015500000         4.060590000        33.581900000 H       449 pe       0.041986755
     2709 H5           29.899700000         5.079310000        32.649000000 H       449 pe       0.041986755
     2710 H6           29.970500000         5.272330000        35.664900000 H       449 pe       0.041986755
     2711 H8           29.106500000         3.931840000        34.898200000 H       449 pe       0.041986755
     2712 C1           28.252800000         5.858090000        34.461600000 C.3     450 pe      -0.084813245
     2713 C2           27.453300000         6.173330000        35.728600000 C.3     450 pe      -0.084813245
     2714 H4           27.601000000         5.353360000        33.748900000 H       450 pe       0.041986755
     2715 H5           28.587900000         6.799600000        34.031200000 H       450 pe       0.041986755
     2716 H6           27.076900000         5.250640000        36.169600000 H       450 pe       0.041986755
     2717 H7           28.087600000         6.697840000        36.443000000 H       450 pe       0.041986755
     2718 H8           26.611700000         6.814680000        35.470700000 H       450 pe       0.041986755
     2719 C1            5.644390000        43.489500000        16.561000000 C.3     451 pe      -0.084813245
     2720 C2            6.771390000        43.345000000        15.536700000 C.3     451 pe      -0.084813245
     2721 H3            5.115930000        42.553100000        16.716600000 H       451 pe       0.041986755
     2722 H4            6.052580000        43.843900000        17.505500000 H       451 pe       0.041986755
     2723 H5            4.931680000        44.208400000        16.170700000 H       451 pe       0.041986755
     2724 H6            7.178760000        44.335400000        15.368700000 H       451 pe       0.041986755
     2725 H8            6.348130000        43.020200000        14.596800000 H       451 pe       0.041986755
     2726 C1            7.927990000        42.433600000        15.995700000 C.3     452 pe      -0.084813245
     2727 C2            7.586260000        40.973500000        16.337900000 C.3     452 pe      -0.084813245
     2728 H4            8.322040000        42.862300000        16.905400000 H       452 pe       0.041986755
     2729 H5            8.721390000        42.453600000        15.248300000 H       452 pe       0.041986755
     2730 H6            6.601410000        40.880500000        16.782800000 H       452 pe       0.041986755
     2731 H8            8.306170000        40.654700000        17.091400000 H       452 pe       0.041986755
     2732 C1            7.718010000        39.983800000        15.175200000 C.3     453 pe      -0.084813245
     2733 C2            7.023400000        40.372000000        13.867300000 C.3     453 pe      -0.084813245
     2734 H4            7.294680000        39.043200000        15.512100000 H       453 pe       0.041986755
     2735 H5            8.776350000        39.838800000        14.964900000 H       453 pe       0.041986755
     2736 H6            7.306570000        39.649700000        13.109400000 H       453 pe       0.041986755
     2737 H8            7.385010000        41.332300000        13.525000000 H       453 pe       0.041986755
     2738 C1            5.493100000        40.374600000        13.971200000 C.3     454 pe      -0.084813245
     2739 C2            4.975950000        41.035800000        12.695200000 C.3     454 pe      -0.084813245
     2740 H4            5.141590000        40.933900000        14.833000000 H       454 pe       0.041986755
     2741 H5            5.136110000        39.350100000        14.044900000 H       454 pe       0.041986755
     2742 H6            5.562210000        40.659200000        11.864200000 H       454 pe       0.041986755
     2743 H8            5.116590000        42.114200000        12.754500000 H       454 pe       0.041986755
     2744 C1            3.492860000        40.754400000        12.450800000 C.3     455 pe      -0.084813245
     2745 C2            3.233230000        40.912600000        10.952300000 C.3     455 pe      -0.084813245
     2746 H4            2.898390000        41.482800000        13.001300000 H       455 pe       0.041986755
     2747 H5            3.214400000        39.750800000        12.771900000 H       455 pe       0.041986755
     2748 H6            3.922170000        41.649600000        10.540800000 H       455 pe       0.041986755
     2749 H8            2.220790000        41.281900000        10.823600000 H       455 pe       0.041986755
     2750 C1            3.393070000        39.561000000        10.235800000 C.3     456 pe      -0.084813245
     2751 C2            3.852500000        39.738800000         8.784860000 C.3     456 pe      -0.084813245
     2752 H4            2.443570000        39.036400000        10.243900000 H       456 pe       0.041986755
     2753 H5            4.098220000        38.934200000        10.761500000 H       456 pe       0.041986755
     2754 H6            3.424600000        40.652100000         8.380600000 H       456 pe       0.041986755
     2755 H8            3.477270000        38.904100000         8.194870000 H       456 pe       0.041986755
     2756 C1            5.381700000        39.831800000         8.661660000 C.3     457 pe      -0.084813245
     2757 C2            6.027350000        38.497400000         8.263530000 C.3     457 pe      -0.084813245
     2758 H4            5.836410000        40.220200000         9.567470000 H       457 pe       0.041986755
     2759 H5            5.587270000        40.537600000         7.857080000 H       457 pe       0.041986755
     2760 H6            7.021130000        38.691500000         7.885650000 H       457 pe       0.041986755
     2761 H8            5.461400000        38.110500000         7.419470000 H       457 pe       0.041986755
     2762 C1            6.103180000        37.376100000         9.321550000 C.3     458 pe      -0.084813245
     2763 C2            6.730990000        37.646800000        10.709500000 C.3     458 pe      -0.084813245
     2764 H4            6.717590000        36.606600000         8.870820000 H       458 pe       0.041986755
     2765 H5            5.097260000        36.980100000         9.448000000 H       458 pe       0.041986755
     2766 H6            6.195070000        38.426900000        11.231100000 H       458 pe       0.041986755
     2767 H8            7.772360000        37.939300000        10.618800000 H       458 pe       0.041986755
     2768 C1            6.657880000        36.349500000        11.535200000 C.3     459 pe      -0.084813245
     2769 C2            6.849380000        36.540200000        13.049800000 C.3     459 pe      -0.084813245
     2770 H4            7.394070000        35.643400000        11.157500000 H       459 pe       0.041986755
     2771 H5            5.670070000        35.908600000        11.406200000 H       459 pe       0.041986755
     2772 H6            6.449830000        35.646800000        13.526500000 H       459 pe       0.041986755
     2773 H8            6.257720000        37.383800000        13.390500000 H       459 pe       0.041986755
     2774 C1            8.311950000        36.730700000        13.492400000 C.3     460 pe      -0.084813245
     2775 C2            8.494160000        36.227800000        14.941000000 C.3     460 pe      -0.084813245
     2776 H4            8.579720000        37.780200000        13.435600000 H       460 pe       0.041986755
     2777 H5            8.978500000        36.200100000        12.824200000 H       460 pe       0.041986755
     2778 H6            8.113570000        35.212300000        15.043700000 H       460 pe       0.041986755
     2779 H8            7.926130000        36.862000000        15.614300000 H       460 pe       0.041986755
     2780 C1            9.966420000        36.264400000        15.375400000 C.3     461 pe      -0.084813245
     2781 C2           10.653600000        34.945200000        15.011800000 C.3     461 pe      -0.084813245
     2782 H4           10.035300000        36.434600000        16.449000000 H       461 pe       0.041986755
     2783 H5           10.462200000        37.079700000        14.851200000 H       461 pe       0.041986755
     2784 H6           11.664500000        35.133500000        14.691700000 H       461 pe       0.041986755
     2785 H8           10.128800000        34.556900000        14.170200000 H       461 pe       0.041986755
     2786 C1           10.633800000        33.887300000        16.124500000 C.3     462 pe      -0.084813245
     2787 C2           11.330200000        32.561100000        15.742500000 C.3     462 pe      -0.084813245
     2788 H4            9.601310000        33.677500000        16.399600000 H       462 pe       0.041986755
     2789 H5           11.146400000        34.289200000        16.998500000 H       462 pe       0.041986755
     2790 H6           10.960100000        31.784000000        16.410900000 H       462 pe       0.041986755
     2791 H8           12.396000000        32.683700000        15.932900000 H       462 pe       0.041986755
     2792 C1           11.184200000        32.055600000        14.291100000 C.3     463 pe      -0.084813245
     2793 C2            9.729810000        31.830500000        13.834200000 C.3     463 pe      -0.084813245
     2794 H4           11.687300000        31.091100000        14.241500000 H       463 pe       0.041986755
     2795 H5           11.713900000        32.720800000        13.621400000 H       463 pe       0.041986755
     2796 H6            9.036100000        32.477600000        14.364400000 H       463 pe       0.041986755
     2797 H8            9.489760000        30.806300000        14.109100000 H       463 pe       0.041986755
     2798 C1            9.488440000        31.974700000        12.314900000 C.3     464 pe      -0.084813245
     2799 C2            9.422990000        33.418700000        11.764800000 C.3     464 pe      -0.084813245
     2800 H4            8.503830000        31.547400000        12.127800000 H       464 pe       0.041986755
     2801 H5           10.196200000        31.373300000        11.766100000 H       464 pe       0.041986755
     2802 H6            8.886480000        33.996300000        12.500500000 H       464 pe       0.041986755
     2803 H8            8.756010000        33.442600000        10.915200000 H       464 pe       0.041986755
     2804 C1           10.730600000        34.157200000        11.354000000 C.3     465 pe      -0.084813245
     2805 C2           11.695400000        33.472900000        10.358200000 C.3     465 pe      -0.084813245
     2806 H4           11.317600000        34.407200000        12.228100000 H       465 pe       0.041986755
     2807 H5           10.418500000        35.105100000        10.920300000 H       465 pe       0.041986755
     2808 H6           11.503700000        32.411300000        10.277100000 H       465 pe       0.041986755
     2809 H8           12.710900000        33.596400000        10.731100000 H       465 pe       0.041986755
     2810 C1           11.613000000        34.126700000         8.970030000 C.3     466 pe      -0.084813245
     2811 C2           12.359600000        33.324000000         7.892640000 C.3     466 pe      -0.084813245
     2812 H4           12.063900000        35.104800000         9.025570000 H       466 pe       0.041986755
     2813 H5           10.571300000        34.238200000         8.703580000 H       466 pe       0.041986755
     2814 H6           11.961700000        32.328300000         7.850580000 H       466 pe       0.041986755
     2815 H8           13.406900000        33.253100000         8.182460000 H       466 pe       0.041986755
     2816 C1           12.299800000        33.929400000         6.477360000 C.3     467 pe      -0.084813245
     2817 C2           10.913700000        34.027200000         5.805420000 C.3     467 pe      -0.084813245
     2818 H4           12.950100000        33.343100000         5.828340000 H       467 pe       0.041986755
     2819 H5           12.707200000        34.938700000         6.532590000 H       467 pe       0.041986755
     2820 H6           11.086900000        34.718400000         4.990510000 H       467 pe       0.041986755
     2821 H8           10.205500000        34.483000000         6.486530000 H       467 pe       0.041986755
     2822 C1           10.346100000        32.701700000         5.229520000 C.3     468 pe      -0.084813245
     2823 C2            8.804940000        32.605200000         5.008420000 C.3     468 pe      -0.084813245
     2824 H4           10.613400000        31.952200000         5.931330000 H       468 pe       0.041986755
     2825 H5           10.871200000        32.467500000         4.319190000 H       468 pe       0.041986755
     2826 H6            8.545610000        33.057200000         4.081750000 H       468 pe       0.041986755
     2827 H8            8.358160000        33.141600000         5.811630000 H       468 pe       0.041986755
     2828 C1            8.202870000        31.187000000         5.005690000 C.3     469 pe      -0.084813245
     2829 C2            6.695610000        30.823500000         5.103440000 C.3     469 pe      -0.084813245
     2830 H4            8.596130000        30.820400000         5.905210000 H       469 pe       0.041986755
     2831 H5            8.611330000        30.652700000         4.156660000 H       469 pe       0.041986755
     2832 H6            6.252850000        30.984800000         4.128460000 H       469 pe       0.041986755
     2833 H8            6.144520000        31.436400000         5.794300000 H       469 pe       0.041986755
     2834 C1            6.490130000        29.318500000         5.462620000 C.3     470 pe      -0.084813245
     2835 C2            5.963960000        28.893000000         6.867870000 C.3     470 pe      -0.084813245
     2836 H4            7.387490000        28.780900000         5.231850000 H       470 pe       0.041986755
     2837 H5            5.725060000        28.974600000         4.768830000 H       470 pe       0.041986755
     2838 H6            5.004640000        28.417000000         6.664660000 H       470 pe       0.041986755
     2839 H8            5.738030000        29.785000000         7.446230000 H       470 pe       0.041986755
     2840 C1            6.696800000        27.891000000         7.832220000 C.3     471 pe      -0.084813245
     2841 C2            7.783010000        26.875800000         7.385800000 C.3     471 pe      -0.084813245
     2842 H4            5.893130000        27.258800000         8.189360000 H       471 pe       0.041986755
     2843 H5            7.058030000        28.438800000         8.697720000 H       471 pe       0.041986755
     2844 H6            8.398250000        27.286900000         6.619290000 H       471 pe       0.041986755
     2845 H8            7.250750000        26.037300000         6.970040000 H       471 pe       0.041986755
     2846 C1            8.724720000        26.330200000         8.496390000 C.3     472 pe      -0.084813245
     2847 C2            9.813690000        25.331800000         7.988610000 C.3     472 pe      -0.084813245
     2848 H4            8.115540000        25.809200000         9.226880000 H       472 pe       0.041986755
     2849 H5            9.197720000        27.153900000         9.019250000 H       472 pe       0.041986755
     2850 H6            9.523260000        24.949500000         7.014520000 H       472 pe       0.041986755
     2851 H8            9.859840000        24.494400000         8.682150000 H       472 pe       0.041986755
     2852 C1           11.238700000        25.929300000         7.910320000 C.3     473 pe      -0.084813245
     2853 C2           12.251400000        25.218700000         6.958700000 C.3     473 pe      -0.084813245
     2854 H4           11.653400000        25.975000000         8.911320000 H       473 pe       0.041986755
     2855 H5           11.099000000        26.932700000         7.579920000 H       473 pe       0.041986755
     2856 H6           11.723300000        24.872600000         6.072530000 H       473 pe       0.041986755
     2857 H8           12.632200000        24.335100000         7.467870000 H       473 pe       0.041986755
     2858 C1           13.474200000        26.097100000         6.525790000 C.3     474 pe      -0.084813245
     2859 C2           13.782200000        26.073500000         4.998940000 C.3     474 pe      -0.084813245
     2860 H4           14.355600000        25.738500000         7.047880000 H       474 pe       0.041986755
     2861 H5           13.333300000        27.111000000         6.853820000 H       474 pe       0.041986755
     2862 H6           12.862800000        26.018300000         4.427950000 H       474 pe       0.041986755
     2863 H8           14.305700000        25.140200000         4.809070000 H       474 pe       0.041986755
     2864 C1           14.676500000        27.177900000         4.353540000 C.3     475 pe      -0.084813245
     2865 C2           14.447700000        28.680600000         4.679120000 C.3     475 pe      -0.084813245
     2866 H4           14.579700000        27.045200000         3.276540000 H       475 pe       0.041986755
     2867 H5           15.709500000        26.952000000         4.617600000 H       475 pe       0.041986755
     2868 H6           15.277600000        28.977900000         5.319970000 H       475 pe       0.041986755
     2869 H8           13.549300000        28.811500000         5.258980000 H       475 pe       0.041986755
     2870 C1           14.438600000        29.676700000         3.477680000 C.3     476 pe      -0.084813245
     2871 C2           13.028200000        30.164700000         3.059200000 C.3     476 pe      -0.084813245
     2872 H4           14.945600000        29.243900000         2.615670000 H       476 pe       0.041986755
     2873 H5           15.002500000        30.555100000         3.791110000 H       476 pe       0.041986755
     2874 H6           12.483400000        30.408400000         3.961650000 H       476 pe       0.041986755
     2875 H8           12.523400000        29.362700000         2.522370000 H       476 pe       0.041986755
     2876 C1           12.984700000        31.444200000         2.193220000 C.3     477 pe      -0.084813245
     2877 C2           11.570100000        31.686900000         1.603570000 C.3     477 pe      -0.084813245
     2878 H4           13.694000000        31.342400000         1.371510000 H       477 pe       0.041986755
     2879 H5           13.270600000        32.296300000         2.810080000 H       477 pe       0.041986755
     2880 H6           10.791300000        31.511600000         2.338630000 H       477 pe       0.041986755
     2881 H8           11.429500000        30.952800000         0.810028000 H       477 pe       0.041986755
     2882 C1           11.394800000        33.083300000         0.959056000 C.3     478 pe      -0.084813245
     2883 C2           10.740900000        34.225800000         1.788610000 C.3     478 pe      -0.084813245
     2884 H4           10.804900000        32.930700000         0.058726700 H       478 pe       0.041986755
     2885 H5           12.382900000        33.423400000         0.656420000 H       478 pe       0.041986755
     2886 H6           11.115800000        35.166300000         1.388100000 H       478 pe       0.041986755
     2887 H8           11.064300000        34.155600000         2.814030000 H       478 pe       0.041986755
     2888 C1            9.196840000        34.268200000         1.691340000 C.3     479 pe      -0.084813245
     2889 C2            8.429400000        35.484300000         2.307540000 C.3     479 pe      -0.084813245
     2890 H4            8.788680000        33.325300000         2.019920000 H       479 pe       0.041986755
     2891 H5            8.984060000        34.323500000         0.627707000 H       479 pe       0.041986755
     2892 H6            7.424590000        35.451500000         1.910630000 H       479 pe       0.041986755
     2893 H8            8.910100000        36.368700000         1.908110000 H       479 pe       0.041986755
     2894 C1            8.289100000        35.760600000         3.826860000 C.3     480 pe      -0.084813245
     2895 C2            6.975450000        35.328200000         4.543750000 C.3     480 pe      -0.084813245
     2896 H4            8.354720000        36.841300000         3.950580000 H       480 pe       0.041986755
     2897 H5            9.139810000        35.337600000         4.315780000 H       480 pe       0.041986755
     2898 H6            6.702410000        34.313800000         4.271850000 H       480 pe       0.041986755
     2899 H8            6.173410000        35.980600000         4.198110000 H       480 pe       0.041986755
     2900 C1            7.085280000        35.486900000         6.092930000 C.3     481 pe      -0.084813245
     2901 C2            6.457140000        34.370300000         6.993670000 C.3     481 pe      -0.084813245
     2902 H4            6.568620000        36.410100000         6.325720000 H       481 pe       0.041986755
     2903 H5            8.126420000        35.639200000         6.358940000 H       481 pe       0.041986755
     2904 H6            6.177110000        33.533100000         6.375120000 H       481 pe       0.041986755
     2905 H8            5.526720000        34.768800000         7.396430000 H       481 pe       0.041986755
     2906 C1            7.321470000        33.892300000         8.214640000 C.3     482 pe      -0.084813245
     2907 C2            7.467150000        32.363400000         8.498210000 C.3     482 pe      -0.084813245
     2908 H4            6.835800000        34.291800000         9.101250000 H       482 pe       0.041986755
     2909 H5            8.309270000        34.336700000         8.170170000 H       482 pe       0.041986755
     2910 H6            6.876090000        31.802000000         7.799240000 H       482 pe       0.041986755
     2911 H8            7.055470000        32.169500000         9.488450000 H       482 pe       0.041986755
     2912 C1            8.927910000        31.833400000         8.485970000 C.3     483 pe      -0.084813245
     2913 C2            9.134970000        30.307200000         8.423970000 C.3     483 pe      -0.084813245
     2914 H4            9.407860000        32.120100000         9.395100000 H       483 pe       0.041986755
     2915 H5            9.461180000        32.309100000         7.696540000 H       483 pe       0.041986755
     2916 H6            8.462120000        29.851300000         7.732070000 H       483 pe       0.041986755
     2917 H8            8.851870000        29.945800000         9.411300000 H       483 pe       0.041986755
     2918 C1           10.587700000        29.807300000         8.184970000 C.3     484 pe      -0.084813245
     2919 C2           11.306100000        29.534100000         6.824830000 C.3     484 pe      -0.084813245
     2920 H4           10.637100000        28.857200000         8.688820000 H       484 pe       0.041986755
     2921 H5           11.219900000        30.476200000         8.743210000 H       484 pe       0.041986755
     2922 H6           12.050400000        28.799800000         7.053570000 H       484 pe       0.041986755
     2923 H8           11.901100000        30.392400000         6.542490000 H       484 pe       0.041986755
     2924 C1           10.482700000        29.063400000         5.601030000 C.3     485 pe      -0.084813245
     2925 C2           10.805000000        27.811100000         4.773040000 C.3     485 pe      -0.084813245
     2926 H4           10.519200000        29.865800000         4.883730000 H       485 pe       0.041986755
     2927 H5            9.493700000        28.918800000         5.949500000 H       485 pe       0.041986755
     2928 H6           10.894800000        26.956600000         5.409290000 H       485 pe       0.041986755
     2929 H8           11.726500000        27.966900000         4.238550000 H       485 pe       0.041986755
     2930 C1            9.740250000        27.482100000         3.711070000 C.3     486 pe      -0.084813245
     2931 C2            9.179790000        26.054000000         3.877300000 C.3     486 pe      -0.084813245
     2932 H4           10.215300000        27.548200000         2.732380000 H       486 pe       0.041986755
     2933 H5            8.936680000        28.207700000         3.738450000 H       486 pe       0.041986755
     2934 H6            8.960670000        25.824300000         4.912240000 H       486 pe       0.041986755
     2935 H8            9.937380000        25.352300000         3.531970000 H       486 pe       0.041986755
     2936 C1            7.909390000        25.845700000         3.039330000 C.3     487 pe      -0.084813245
     2937 C2            6.606060000        26.271000000         3.748880000 C.3     487 pe      -0.084813245
     2938 H4            7.858520000        24.809900000         2.717150000 H       487 pe       0.041986755
     2939 H5            8.019940000        26.459700000         2.160490000 H       487 pe       0.041986755
     2940 H6            6.237730000        27.148900000         3.222100000 H       487 pe       0.041986755
     2941 H8            6.814880000        26.567800000         4.763710000 H       487 pe       0.041986755
     2942 C1            5.457500000        25.240400000         3.780000000 C.3     488 pe      -0.084813245
     2943 C2            5.399200000        24.382700000         5.057740000 C.3     488 pe      -0.084813245
     2944 H4            5.483680000        24.594400000         2.908270000 H       488 pe       0.041986755
     2945 H5            4.527930000        25.809500000         3.745650000 H       488 pe       0.041986755
     2946 H6            4.427190000        23.891400000         5.084700000 H       488 pe       0.041986755
     2947 H8            5.468080000        25.023000000         5.933050000 H       488 pe       0.041986755
     2948 C1            6.474520000        23.284500000         5.085400000 C.3     489 pe      -0.084813245
     2949 C2            6.954770000        22.926700000         6.496870000 C.3     489 pe      -0.084813245
     2950 H4            7.356010000        23.608700000         4.548960000 H       489 pe       0.041986755
     2951 H5            6.077840000        22.400500000         4.589310000 H       489 pe       0.041986755
     2952 H6            7.313920000        23.816100000         6.994110000 H       489 pe       0.041986755
     2953 H8            7.790390000        22.243100000         6.407470000 H       489 pe       0.041986755
     2954 C1            5.877840000        22.271000000         7.358110000 C.3     490 pe      -0.084813245
     2955 C2            6.509520000        21.640600000         8.614780000 C.3     490 pe      -0.084813245
     2956 H4            5.398110000        21.482200000         6.787100000 H       490 pe       0.041986755
     2957 H5            5.119800000        23.005400000         7.613170000 H       490 pe       0.041986755
     2958 H6            7.283710000        20.938700000         8.304310000 H       490 pe       0.041986755
     2959 H8            5.759410000        21.072800000         9.142690000 H       490 pe       0.041986755
     2960 C1            7.129400000        22.609100000         9.631410000 C.3     491 pe      -0.084813245
     2961 C2            6.251210000        23.803300000        10.058900000 C.3     491 pe      -0.084813245
     2962 H4            8.055130000        22.998400000         9.215600000 H       491 pe       0.041986755
     2963 H5            7.393190000        22.025100000        10.510100000 H       491 pe       0.041986755
     2964 H6            6.172480000        24.487500000         9.217020000 H       491 pe       0.041986755
     2965 H8            6.765500000        24.326800000        10.864900000 H       491 pe       0.041986755
     2966 C1            4.814720000        23.502800000        10.519900000 C.3     492 pe      -0.084813245
     2967 C2            4.730870000        22.727900000        11.842700000 C.3     492 pe      -0.084813245
     2968 H4            4.270030000        22.947500000         9.762510000 H       492 pe       0.041986755
     2969 H5            4.328840000        24.467400000        10.626200000 H       492 pe       0.041986755
     2970 H6            5.723920000        22.393200000        12.132100000 H       492 pe       0.041986755
     2971 H8            4.114160000        21.845700000        11.698600000 H       492 pe       0.041986755
     2972 C1            4.169460000        23.570600000        12.998900000 C.3     493 pe      -0.084813245
     2973 C2            2.696980000        24.019500000        12.890400000 C.3     493 pe      -0.084813245
     2974 H4            4.781780000        24.465100000        13.088800000 H       493 pe       0.041986755
     2975 H5            4.290270000        22.993400000        13.912600000 H       493 pe       0.041986755
     2976 H6            2.584210000        24.696600000        12.048500000 H       493 pe       0.041986755
     2977 H8            2.460520000        24.592800000        13.785700000 H       493 pe       0.041986755
     2978 C1            1.645750000        22.906400000        12.719400000 C.3     494 pe      -0.084813245
     2979 C2            1.714530000        21.738600000        13.720400000 C.3     494 pe      -0.084813245
     2980 H4            1.734890000        22.498700000        11.712800000 H       494 pe       0.041986755
     2981 H5            0.662879000        23.369400000        12.803300000 H       494 pe       0.041986755
     2982 H6            2.640490000        21.193000000        13.564500000 H       494 pe       0.041986755
     2983 H8            0.888850000        21.066100000        13.489800000 H       494 pe       0.041986755
     2984 C1            1.575160000        22.185900000        15.189100000 C.3     495 pe      -0.084813245
     2985 C2            1.646310000        21.011000000        16.183400000 C.3     495 pe      -0.084813245
     2986 H4            0.601907000        22.662100000        15.304300000 H       495 pe       0.041986755
     2987 H5            2.336380000        22.914200000        15.443400000 H       495 pe       0.041986755
     2988 H6            0.966669000        20.233100000        15.836500000 H       495 pe       0.041986755
     2989 H8            1.292420000        21.357500000        17.153800000 H       495 pe       0.041986755
     2990 C1            3.044650000        20.381500000        16.353700000 C.3     496 pe      -0.084813245
     2991 C2            3.804790000        20.823900000        17.616700000 C.3     496 pe      -0.084813245
     2992 H4            3.672330000        20.571600000        15.486400000 H       496 pe       0.041986755
     2993 H5            2.903760000        19.303400000        16.428900000 H       496 pe       0.041986755
     2994 H6            4.712640000        20.222700000        17.649300000 H       496 pe       0.041986755
     2995 H8            3.213540000        20.608700000        18.506700000 H       496 pe       0.041986755
     2996 C1            4.168980000        22.318000000        17.589400000 C.3     497 pe      -0.084813245
     2997 C2            5.438370000        22.653000000        18.396500000 C.3     497 pe      -0.084813245
     2998 H4            3.337330000        22.896000000        17.991200000 H       497 pe       0.041986755
     2999 H5            4.324410000        22.617900000        16.557700000 H       497 pe       0.041986755
     3000 H6            5.980590000        21.757800000        18.699100000 H       497 pe       0.041986755
     3001 H8            5.142630000        23.193900000        19.294600000 H       497 pe       0.041986755
     3002 C1            6.368490000        23.549600000        17.565300000 C.3     498 pe      -0.084813245
     3003 C2            7.053840000        22.744300000        16.441700000 C.3     498 pe      -0.084813245
     3004 H4            7.140100000        23.956800000        18.212100000 H       498 pe       0.041986755
     3005 H5            5.789830000        24.388000000        17.181200000 H       498 pe       0.041986755
     3006 H6            6.535870000        21.798700000        16.290100000 H       498 pe       0.041986755
     3007 H8            8.067060000        22.505400000        16.748100000 H       498 pe       0.041986755
     3008 C1            7.057430000        23.481200000        15.092600000 C.3     499 pe      -0.084813245
     3009 C2            8.314240000        24.326800000        14.844500000 C.3     499 pe      -0.084813245
     3010 H4            6.198960000        24.142700000        15.030900000 H       499 pe       0.041986755
     3011 H5            6.952070000        22.735900000        14.310900000 H       499 pe       0.041986755
     3012 H6            8.602920000        24.812900000        15.775400000 H       499 pe       0.041986755
     3013 H8            8.070130000        25.099700000        14.116700000 H       499 pe       0.041986755
     3014 C1            9.503140000        23.510900000        14.312100000 C.3     500 pe      -0.084813245
     3015 C2            9.354240000        23.111100000        12.835100000 C.3     500 pe      -0.084813245
     3016 H4            9.651230000        22.629100000        14.923400000 H       500 pe       0.041986755
     3017 H5           10.396800000        24.115700000        14.406200000 H       500 pe       0.041986755
     3018 H6           10.270700000        22.624100000        12.506700000 H       500 pe       0.041986755
     3019 H7            8.531950000        22.415800000        12.695000000 H       500 pe       0.041986755
     3020 H8            9.177890000        23.993300000        12.222800000 H       500 pe       0.041986755
     3021 C1           41.701600000        15.927900000        11.621400000 C.3     501 pe      -0.084813245
     3022 C2           42.094600000        17.026400000        10.628900000 C.3     501 pe      -0.084813245
     3023 H3           41.736400000        14.956500000        11.129200000 H       501 pe       0.041986755
     3024 H4           42.389500000        15.928300000        12.466600000 H       501 pe       0.041986755
     3025 H5           40.689800000        16.112700000        11.981200000 H       501 pe       0.041986755
     3026 H6           42.134300000        17.982300000        11.150800000 H       501 pe       0.041986755
     3027 H8           41.341300000        17.072300000         9.843350000 H       501 pe       0.041986755
     3028 C1           43.469500000        16.701900000        10.030500000 C.3     502 pe      -0.084813245
     3029 C2           44.026800000        17.820700000         9.140210000 C.3     502 pe      -0.084813245
     3030 H4           43.407800000        15.781900000         9.450030000 H       502 pe       0.041986755
     3031 H5           44.176100000        16.546600000        10.845600000 H       502 pe       0.041986755
     3032 H6           45.007300000        17.478200000         8.820150000 H       502 pe       0.041986755
     3033 H8           44.146900000        18.731900000         9.726490000 H       502 pe       0.041986755
     3034 C1           43.134800000        18.119200000         7.920400000 C.3     503 pe      -0.084813245
     3035 C2           43.941700000        18.641500000         6.712710000 C.3     503 pe      -0.084813245
     3036 H4           42.418000000        18.890400000         8.201630000 H       503 pe       0.041986755
     3037 H5           42.574900000        17.227100000         7.653670000 H       503 pe       0.041986755
     3038 H6           45.004800000        18.634100000         6.922410000 H       503 pe       0.041986755
     3039 H8           43.645300000        19.677000000         6.547910000 H       503 pe       0.041986755
     3040 C1           43.699800000        17.872000000         5.400970000 C.3     504 pe      -0.084813245
     3041 C2           44.792700000        16.836000000         5.074030000 C.3     504 pe      -0.084813245
     3042 H4           43.712400000        18.606400000         4.595710000 H       504 pe       0.041986755
     3043 H5           42.720700000        17.399200000         5.399730000 H       504 pe       0.041986755
     3044 H6           45.767985000        17.321500000         5.075220000 H       504 pe       0.041986755
     3045 H8           44.603600000        16.468800000         4.064990000 H       504 pe       0.041986755
     3046 C1           44.791700000        15.616900000         6.011160000 C.3     505 pe      -0.084813245
     3047 C2           46.137617000        15.382700000         6.712830000 C.3     505 pe      -0.084813245
     3048 H4           44.532300000        14.739100000         5.430700000 H       505 pe       0.041986755
     3049 H5           44.032000000        15.725200000         6.774910000 H       505 pe       0.041986755
     3050 H6           45.955227000        14.695500000         7.535570000 H       505 pe       0.041986755
     3051 H8           46.504390000        16.318300000         7.131430000 H       505 pe       0.041986755
     3052 C1           47.202800000        14.803500000         5.764070000 C.3     506 pe      -0.084813245
     3053 C2           48.152210000        13.823000000         6.478160000 C.3     506 pe      -0.084813245
     3054 H4           47.790100000        15.631000000         5.368710000 H       506 pe       0.041986755
     3055 H5           46.735030000        14.298200000         4.922030000 H       506 pe       0.041986755
     3056 H6           48.435800000        14.221800000         7.451740000 H       506 pe       0.041986755
     3057 H8           49.045800000        13.711600000         5.864760000 H       506 pe       0.041986755
     3058 C1           47.507990000        12.441400000         6.658490000 C.3     507 pe      -0.084813245
     3059 C2           48.516470000        11.395700000         7.141930000 C.3     507 pe      -0.084813245
     3060 H4           47.099400000        12.122900000         5.702370000 H       507 pe       0.041986755
     3061 H5           46.717980000        12.507000000         7.402980000 H       507 pe       0.041986755
     3062 H6           48.949160000        11.739600000         8.080220000 H       507 pe       0.041986755
     3063 H8           49.313510000        11.279900000         6.407680000 H       507 pe       0.041986755
     3064 C1           47.843680000        10.036700000         7.399180000 C.3     508 pe      -0.084813245
     3065 C2           47.276120000         9.397630000         6.127520000 C.3     508 pe      -0.084813245
     3066 H4           47.030130000        10.160700000         8.109780000 H       508 pe       0.041986755
     3067 H5           48.602780000         9.384720000         7.823240000 H       508 pe       0.041986755
     3068 H6           47.927030000         9.650330000         5.305400000 H       508 pe       0.041986755
     3069 H8           46.295333000         9.814040000         5.925860000 H       508 pe       0.041986755
     3070 C1           47.131380000         7.870910000         6.228580000 C.3     509 pe      -0.084813245
     3071 C2           47.197330000         7.242580000         4.828390000 C.3     509 pe      -0.084813245
     3072 H4           46.160655000         7.649970000         6.673090000 H       509 pe       0.041986755
     3073 H5           47.910550000         7.433090000         6.850590000 H       509 pe       0.041986755
     3074 H6           46.568390000         7.830060000         4.160960000 H       509 pe       0.041986755
     3075 H8           46.791560000         6.233640000         4.880260000 H       509 pe       0.041986755
     3076 C1           48.655340000         7.145450000         4.326890000 C.3     510 pe      -0.084813245
     3077 C2           48.815460000         7.503650000         2.836170000 C.3     510 pe      -0.084813245
     3078 H4           48.991640000         6.118370000         4.467040000 H       510 pe       0.041986755
     3079 H5           49.299800000         7.781780000         4.928460000 H       510 pe       0.041986755
     3080 H6           47.992840000         8.116290000         2.488530000 H       510 pe       0.041986755
     3081 H8           48.795130000         6.573500000         2.271210000 H       510 pe       0.041986755
     3082 C1           50.151830000         8.210670000         2.530020000 C.3     511 pe      -0.084813245
     3083 C2           50.243900000         9.683530000         2.987320000 C.3     511 pe      -0.084813245
     3084 H4           50.334410000         8.163800000         1.456990000 H       511 pe       0.041986755
     3085 H5           50.945040000         7.652940000         3.027830000 H       511 pe       0.041986755
     3086 H6           51.276400000         9.851570000         3.292600000 H       511 pe       0.041986755
     3087 H8           49.626450000         9.859840000         3.857420000 H       511 pe       0.041986755
     3088 C1           49.930410000        10.747000000         1.914980000 C.3     512 pe      -0.084813245
     3089 C2           48.542430000        10.677600000         1.254080000 C.3     512 pe      -0.084813245
     3090 H4           50.679600000        10.663800000         1.128140000 H       512 pe       0.041986755
     3091 H5           50.037070000        11.728600000         2.377250000 H       512 pe       0.041986755
     3092 H6           48.418680000         9.699180000         0.794654000 H       512 pe       0.041986755
     3093 H8           48.515840000        11.426600000         0.462583000 H       512 pe       0.041986755
     3094 C1           47.383060000        10.979300000         2.220860000 C.3     513 pe      -0.084813245
     3095 C2           46.032580000        10.708100000         1.534870000 C.3     513 pe      -0.084813245
     3096 H4           47.460870000        12.007300000         2.570670000 H       513 pe       0.041986755
     3097 H5           47.434720000        10.327200000         3.084800000 H       513 pe       0.041986755
     3098 H6           45.477450000         9.996760000         2.143820000 H       513 pe       0.041986755
     3099 H8           46.203831000        10.244800000         0.564490000 H       513 pe       0.041986755
     3100 C1           45.182200000        11.965400000         1.293170000 C.3     514 pe      -0.084813245
     3101 C2           43.933200000        12.019300000         2.183660000 C.3     514 pe      -0.084813245
     3102 H4           44.832100000        11.917500000         0.262222000 H       514 pe       0.041986755
     3103 H5           45.761064000        12.881500000         1.401570000 H       514 pe       0.041986755
     3104 H6           43.377600000        11.086500000         2.090520000 H       514 pe       0.041986755
     3105 H8           43.312300000        12.823000000         1.793580000 H       514 pe       0.041986755
     3106 C1           44.220700000        12.337100000         3.660500000 C.3     515 pe      -0.084813245
     3107 C2           43.828900000        11.172400000         4.581760000 C.3     515 pe      -0.084813245
     3108 H4           43.626700000        13.207900000         3.922970000 H       515 pe       0.041986755
     3109 H5           45.273800000        12.572600000         3.795820000 H       515 pe       0.041986755
     3110 H6           44.496500000        10.336600000         4.384360000 H       515 pe       0.041986755
     3111 H8           42.816100000        10.859100000         4.357030000 H       515 pe       0.041986755
     3112 C1           43.927600000        11.530100000         6.075910000 C.3     516 pe      -0.084813245
     3113 C2           42.660300000        12.192300000         6.624230000 C.3     516 pe      -0.084813245
     3114 H4           44.752400000        12.213000000         6.228460000 H       516 pe       0.041986755
     3115 H5           44.110000000        10.611000000         6.630580000 H       516 pe       0.041986755
     3116 H6           41.803300000        11.601100000         6.329000000 H       516 pe       0.041986755
     3117 H8           42.580600000        13.190700000         6.198030000 H       516 pe       0.041986755
     3118 C1           42.682700000        12.289900000         8.160710000 C.3     517 pe      -0.084813245
     3119 C2           41.283700000        12.546800000         8.750690000 C.3     517 pe      -0.084813245
     3120 H4           43.358600000        13.091000000         8.460010000 H       517 pe       0.041986755
     3121 H5           43.044800000        11.352100000         8.581080000 H       517 pe       0.041986755
     3122 H6           41.376900000        12.658000000         9.830780000 H       517 pe       0.041986755
     3123 H8           40.642000000        11.691000000         8.538930000 H       517 pe       0.041986755
     3124 C1           40.648900000        13.814300000         8.167250000 C.3     518 pe      -0.084813245
     3125 C2           39.337000000        14.194400000         8.870560000 C.3     518 pe      -0.084813245
     3126 H4           40.429700000        13.637500000         7.119140000 H       518 pe       0.041986755
     3127 H5           41.357400000        14.636300000         8.255900000 H       518 pe       0.041986755
     3128 H6           39.540100000        14.873400000         9.697190000 H       518 pe       0.041986755
     3129 H8           38.864200000        13.292900000         9.259990000 H       518 pe       0.041986755
     3130 C1           38.359900000        14.853700000         7.884170000 C.3     519 pe      -0.084813245
     3131 C2           38.847100000        16.230700000         7.385940000 C.3     519 pe      -0.084813245
     3132 H4           37.404800000        14.997800000         8.389670000 H       519 pe       0.041986755
     3133 H5           38.201400000        14.162600000         7.057390000 H       519 pe       0.041986755
     3134 H6           39.930800000        16.288200000         7.370390000 H       519 pe       0.041986755
     3135 H8           38.488500000        16.986400000         8.084520000 H       519 pe       0.041986755
     3136 C1           38.294600000        16.567300000         5.989810000 C.3     520 pe      -0.084813245
     3137 C2           39.382200000        16.910000000         4.952880000 C.3     520 pe      -0.084813245
     3138 H4           37.657600000        17.445100000         6.095790000 H       520 pe       0.041986755
     3139 H5           37.676500000        15.758200000         5.619390000 H       520 pe       0.041986755
     3140 H6           40.002500000        17.707600000         5.361890000 H       520 pe       0.041986755
     3141 H8           38.888700000        17.295800000         4.061030000 H       520 pe       0.041986755
     3142 C1           40.307300000        15.752200000         4.526600000 C.3     521 pe      -0.084813245
     3143 C2           39.617200000        14.678000000         3.670810000 C.3     521 pe      -0.084813245
     3144 H4           40.755600000        15.286200000         5.399380000 H       521 pe       0.041986755
     3145 H5           41.107700000        16.187400000         3.929620000 H       521 pe       0.041986755
     3146 H6           39.212200000        15.140400000         2.770800000 H       521 pe       0.041986755
     3147 H8           38.814700000        14.216400000         4.238480000 H       521 pe       0.041986755
     3148 C1           40.650500000        13.610700000         3.276390000 C.3     522 pe      -0.084813245
     3149 C2           40.114200000        12.549800000         2.301320000 C.3     522 pe      -0.084813245
     3150 H4           41.036800000        13.124000000         4.167550000 H       522 pe       0.041986755
     3151 H5           41.473700000        14.117900000         2.776350000 H       522 pe       0.041986755
     3152 H6           40.949200000        11.954200000         1.939130000 H       522 pe       0.041986755
     3153 H8           39.683000000        13.064500000         1.443080000 H       522 pe       0.041986755
     3154 C1           39.055900000        11.586600000         2.863860000 C.3     523 pe      -0.084813245
     3155 C2           39.521300000        10.618700000         3.953350000 C.3     523 pe      -0.084813245
     3156 H4           38.748200000        10.963300000         2.029970000 H       523 pe       0.041986755
     3157 H5           38.199600000        12.139100000         3.225590000 H       523 pe       0.041986755
     3158 H6           40.599600000        10.518200000         3.904050000 H       523 pe       0.041986755
     3159 H8           39.078400000         9.648420000         3.745480000 H       523 pe       0.041986755
     3160 C1           39.108800000        11.058900000         5.365590000 C.3     524 pe      -0.084813245
     3161 C2           37.666800000        10.678800000         5.736130000 C.3     524 pe      -0.084813245
     3162 H4           39.223400000        12.133900000         5.466530000 H       524 pe       0.041986755
     3163 H5           39.781100000        10.576200000         6.068190000 H       524 pe       0.041986755
     3164 H6           37.078900000        10.505800000         4.836000000 H       524 pe       0.041986755
     3165 H8           37.229900000        11.508000000         6.291750000 H       524 pe       0.041986755
     3166 C1           37.682000000         9.425660000         6.628020000 C.3     525 pe      -0.084813245
     3167 C2           36.293100000         9.016960000         7.147010000 C.3     525 pe      -0.084813245
     3168 H4           38.289300000         9.633850000         7.509380000 H       525 pe       0.041986755
     3169 H5           38.136700000         8.609040000         6.078110000 H       525 pe       0.041986755
     3170 H6           35.774900000         9.918490000         7.473420000 H       525 pe       0.041986755
     3171 H8           36.429400000         8.377120000         8.018150000 H       525 pe       0.041986755
     3172 C1           35.397800000         8.295150000         6.122250000 C.3     526 pe      -0.084813245
     3173 C2           35.395400000         6.753400000         6.231500000 C.3     526 pe      -0.084813245
     3174 H4           35.637300000         8.615730000         5.112780000 H       526 pe       0.041986755
     3175 H5           34.377000000         8.615860000         6.329300000 H       526 pe       0.041986755
     3176 H6           34.559900000         6.380610000         5.639880000 H       526 pe       0.041986755
     3177 H8           35.209800000         6.479650000         7.270300000 H       526 pe       0.041986755
     3178 C1           36.670100000         6.024050000         5.764230000 C.3     527 pe      -0.084813245
     3179 C2           36.855100000         6.077970000         4.233490000 C.3     527 pe      -0.084813245
     3180 H4           36.573100000         4.976710000         6.049610000 H       527 pe       0.041986755
     3181 H5           37.529000000         6.429270000         6.289000000 H       527 pe       0.041986755
     3182 H6           36.816100000         7.105040000         3.878950000 H       527 pe       0.041986755
     3183 H8           36.033000000         5.530360000         3.773650000 H       527 pe       0.041986755
     3184 C1           38.173600000         5.448550000         3.746520000 C.3     528 pe      -0.084813245
     3185 C2           39.377800000         6.297340000         4.176400000 C.3     528 pe      -0.084813245
     3186 H4           38.135700000         5.396840000         2.659150000 H       528 pe       0.041986755
     3187 H5           38.276000000         4.439970000         4.147250000 H       528 pe       0.041986755
     3188 H6           39.606200000         6.037570000         5.200990000 H       528 pe       0.041986755
     3189 H8           39.109600000         7.345820000         4.111930000 H       528 pe       0.041986755
     3190 C1           40.642300000         6.067370000         3.341060000 C.3     529 pe      -0.084813245
     3191 C2           41.705000000         7.166120000         3.566110000 C.3     529 pe      -0.084813245
     3192 H4           40.379800000         6.077550000         2.284140000 H       529 pe       0.041986755
     3193 H5           41.051300000         5.089160000         3.586920000 H       529 pe       0.041986755
     3194 H6           41.275400000         8.150170000         3.392480000 H       529 pe       0.041986755
     3195 H8           42.486200000         7.006850000         2.823110000 H       529 pe       0.041986755
     3196 C1           42.385000000         7.126150000         4.945350000 C.3     530 pe      -0.084813245
     3197 C2           41.727900000         8.023880000         6.014950000 C.3     530 pe      -0.084813245
     3198 H4           43.411900000         7.471810000         4.821020000 H       530 pe       0.041986755
     3199 H5           42.418500000         6.094740000         5.267610000 H       530 pe       0.041986755
     3200 H6           40.655100000         8.100430000         5.876510000 H       530 pe       0.041986755
     3201 H8           42.146000000         9.020440000         5.905540000 H       530 pe       0.041986755
     3202 C1           42.042300000         7.541810000         7.442320000 C.3     531 pe      -0.084813245
     3203 C2           40.908100000         6.701750000         8.070450000 C.3     531 pe      -0.084813245
     3204 H4           42.187800000         8.418790000         8.073090000 H       531 pe       0.041986755
     3205 H5           42.976000000         6.989320000         7.418460000 H       531 pe       0.041986755
     3206 H6           40.217900000         6.347980000         7.315400000 H       531 pe       0.041986755
     3207 H8           40.356300000         7.346160000         8.754390000 H       531 pe       0.041986755
     3208 C1           41.398500000         5.475640000         8.855620000 C.3     532 pe      -0.084813245
     3209 C2           41.809400000         4.342990000         7.892390000 C.3     532 pe      -0.084813245
     3210 H4           40.568200000         5.109200000         9.459780000 H       532 pe       0.041986755
     3211 H5           42.189700000         5.775370000         9.530960000 H       532 pe       0.041986755
     3212 H6           42.226300000         4.730760000         6.965500000 H       532 pe       0.041986755
     3213 H8           40.860200000         3.902440000         7.588680000 H       532 pe       0.041986755
     3214 C1           42.576300000         3.145070000         8.525790000 C.3     533 pe      -0.084813245
     3215 C2           44.201600000         2.982940000         8.362820000 C.3     533 pe      -0.084813245
     3216 H4           42.140800000         2.401310000         7.872580000 H       533 pe       0.041986755
     3217 H5           42.082900000         3.016130000         9.471450000 H       533 pe       0.041986755
     3218 H6           43.730500000         3.887860000         8.043480000 H       533 pe       0.041986755
     3219 H8           43.904900000         2.851110000         7.317520000 H       533 pe       0.041986755
     3220 C1           46.401250000         3.211030000         9.419610000 C.3     534 pe      -0.084813245
     3221 C2           46.458380000         3.143180000        11.420400000 C.3     534 pe      -0.084813245
     3222 H4           47.111640000         4.028610000         9.279250000 H       534 pe       0.041986755
     3223 H5           47.113260000         2.471150000         9.030380000 H       534 pe       0.041986755
     3224 H6           46.662420000         4.168880000        11.762500000 H       534 pe       0.041986755
     3225 H8           47.372680000         2.673210000        11.771200000 H       534 pe       0.041986755
     3226 C1           44.885700000         2.477960000        12.445400000 C.3     535 pe      -0.084813245
     3227 C2           43.215100000         1.735930000        11.721200000 C.3     535 pe      -0.084813245
     3228 H4           44.558800000         3.289480000        13.087500000 H       535 pe       0.041986755
     3229 H5           45.234400000         1.740080000        13.161500000 H       535 pe       0.041986755
     3230 H6           42.440100000         2.482220000        11.838000000 H       535 pe       0.041986755
     3231 H8           42.954700000         0.993508000        12.471400000 H       535 pe       0.041986755
     3232 C1           42.849400000         0.787896000        10.049400000 C.3     536 pe      -0.084813245
     3233 C2           43.701900000         0.477527000         8.344570000 C.3     536 pe      -0.084813245
     3234 H4           41.779700000         0.903642000         9.855190000 H       536 pe       0.041986755
     3235 H5           42.864800000        -0.237900000        10.427600000 H       536 pe       0.041986755
     3236 H6           42.869400000         0.406174000         7.647800000 H       536 pe       0.041986755
     3237 H8           43.947600000        -0.576800000         8.433590000 H       536 pe       0.041986755
     3238 C1           45.155100000         1.075860000         7.194340000 C.3     537 pe      -0.084813245
     3239 C2           46.026386000         2.750120000         6.795260000 C.3     537 pe      -0.084813245
     3240 H4           44.787400000         0.772381000         6.215600000 H       537 pe       0.041986755
     3241 H5           45.974750000         0.404021000         7.366650000 H       537 pe       0.041986755
     3242 H6           45.837353000         2.855740000         5.725180000 H       537 pe       0.041986755
     3243 H8           47.101150000         2.537460000         6.822870000 H       537 pe       0.041986755
     3244 C1           45.803017000         4.556310000         7.418710000 C.3     538 pe      -0.084813245
     3245 C2           45.064500000         5.165300000         9.140330000 C.3     538 pe      -0.084813245
     3246 H4           45.175200000         5.033760000         6.663980000 H       538 pe       0.041986755
     3247 H5           46.768060000         5.044430000         7.299650000 H       538 pe       0.041986755
     3248 H6           44.287400000         5.881980000         8.914770000 H       538 pe       0.041986755
     3249 H8           45.805700000         5.774380000         9.631030000 H       538 pe       0.041986755
     3250 C1           44.400800000         3.857850000        10.447200000 C.3     539 pe      -0.084813245
     3251 C2           45.112700000         1.549700000        10.262200000 C.3     539 pe      -0.084813245
     3252 H4           43.358900000         4.034990000        10.628000000 H       539 pe       0.041986755
     3253 H5           44.607800000         4.524730000        11.304600000 H       539 pe       0.041986755
     3254 H6           45.526930000         1.165500000         9.398440000 H       539 pe       0.041986755
     3255 H8           44.930700000         0.679010000        10.911900000 H       539 pe       0.041986755
     3256 C1           46.361890000         0.593427000        10.729300000 C.3     540 pe      -0.084813245
     3257 C2           46.370650000        -0.878400000        10.248600000 C.3     540 pe      -0.084813245
     3258 H4           46.340633000         0.447265000        11.803100000 H       540 pe       0.041986755
     3259 H5           47.359660000         0.945856000        10.496200000 H       540 pe       0.041986755
     3260 H6           45.391689500        -1.241500000         9.956950000 H       540 pe       0.041986755
     3261 H8           46.667820000        -1.480900000        11.106000000 H       540 pe       0.041986755
     3262 C1           47.432730000        -1.131300000         9.158830000 C.3     541 pe      -0.084813245
     3263 C2           46.925250000        -2.065200000         8.047940000 C.3     541 pe      -0.084813245
     3264 H4           48.307980000        -1.580500000         9.624660000 H       541 pe       0.041986755
     3265 H5           47.744610000        -0.190900000         8.715610000 H       541 pe       0.041986755
     3266 H6           45.862413000        -1.914500000         7.894660000 H       541 pe       0.041986755
     3267 H8           47.076640000        -3.095400000         8.351960000 H       541 pe       0.041986755
     3268 C1           47.688000000        -1.807900000         6.735130000 C.3     542 pe      -0.084813245
     3269 C2           46.869490000        -2.213300000         5.501760000 C.3     542 pe      -0.084813245
     3270 H4           48.601280000        -2.394800000         6.774630000 H       542 pe       0.041986755
     3271 H5           47.953960000        -0.759600000         6.621500000 H       542 pe       0.041986755
     3272 H6           45.807749000        -2.176700000         5.724280000 H       542 pe       0.041986755
     3273 H8           47.149010000        -3.230500000         5.228720000 H       542 pe       0.041986755
     3274 C1           47.081760000        -1.254300000         4.320280000 C.3     543 pe      -0.084813245
     3275 C2           46.492280000        -1.887100000         3.056330000 C.3     543 pe      -0.084813245
     3276 H4           48.134340000        -1.045800000         4.163260000 H       543 pe       0.041986755
     3277 H5           46.565970000        -0.315800000         4.523540000 H       543 pe       0.041986755
     3278 H6           45.408932600        -1.919900000         3.163700000 H       543 pe       0.041986755
     3279 H8           46.876080000        -2.898400000         2.932880000 H       543 pe       0.041986755
     3280 C1           46.856690000        -1.080400000         1.808270000 C.3     544 pe      -0.084813245
     3281 C2           46.296627000        -1.806300000         0.573113000 C.3     544 pe      -0.084813245
     3282 H4           47.940800000        -1.012600000         1.716310000 H       544 pe       0.041986755
     3283 H5           46.447740000        -0.079400000         1.910290000 H       544 pe       0.041986755
     3284 H6           45.314900000        -2.216000000         0.784252000 H       544 pe       0.041986755
     3285 H8           46.962740000        -2.640800000         0.353589000 H       544 pe       0.041986755
     3286 C1           46.231554000        -0.915500000        -0.677200000 C.3     545 pe      -0.084813245
     3287 C2           45.116900000         0.151492000        -0.679200000 C.3     545 pe      -0.084813245
     3288 H4           46.111485000        -1.555700000        -1.550800000 H       545 pe       0.041986755
     3289 H5           47.188800000        -0.402000000        -0.768200000 H       545 pe       0.041986755
     3290 H6           45.348200000         0.831904000        -1.498300000 H       545 pe       0.041986755
     3291 H8           45.155600000         0.725585000         0.234122000 H       545 pe       0.041986755
     3292 C1           43.683200000        -0.363700000        -0.928000000 C.3     546 pe      -0.084813245
     3293 C2           42.799900000        -0.570600000         0.321116000 C.3     546 pe      -0.084813245
     3294 H4           43.734300000        -1.307700000        -1.469400000 H       546 pe       0.041986755
     3295 H5           43.181600000         0.359921000        -1.570500000 H       546 pe       0.041986755
     3296 H6           43.258300000        -1.297600000         0.980635000 H       546 pe       0.041986755
     3297 H8           41.852000000        -0.986800000        -0.019500000 H       546 pe       0.041986755
     3298 C1           42.478000000         0.710680000         1.112280000 C.3     547 pe      -0.084813245
     3299 C2           43.032900000         0.602564000         2.546210000 C.3     547 pe      -0.084813245
     3300 H4           41.394900000         0.818930000         1.166490000 H       547 pe       0.041986755
     3301 H5           42.886200000         1.575350000         0.594168000 H       547 pe       0.041986755
     3302 H6           44.101800000         0.406320000         2.519230000 H       547 pe       0.041986755
     3303 H8           42.550300000        -0.246600000         3.031290000 H       547 pe       0.041986755
     3304 C1           42.766000000         1.835870000         3.431130000 C.3     548 pe      -0.084813245
     3305 C2           43.309700000         3.183860000         2.920930000 C.3     548 pe      -0.084813245
     3306 H4           43.208400000         1.643800000         4.407790000 H       548 pe       0.041986755
     3307 H5           41.688900000         1.936410000         3.564620000 H       548 pe       0.041986755
     3308 H6           43.221500000         3.904120000         3.733600000 H       548 pe       0.041986755
     3309 H8           42.693500000         3.521660000         2.088380000 H       548 pe       0.041986755
     3310 C1           44.781300000         3.141810000         2.487120000 C.3     549 pe      -0.084813245
     3311 C2           45.276100000         4.538840000         2.092100000 C.3     549 pe      -0.084813245
     3312 H4           44.879900000         2.501190000         1.621280000 H       549 pe       0.041986755
     3313 H5           45.392976500         2.750770000         3.298710000 H       549 pe       0.041986755
     3314 H6           45.576578000         5.082870000         2.985890000 H       549 pe       0.041986755
     3315 H8           44.467200000         5.083430000         1.605880000 H       549 pe       0.041986755
     3316 C1           46.450830000         4.465950000         1.102680000 C.3     550 pe      -0.084813245
     3317 C2           47.666880000         3.722360000         1.670570000 C.3     550 pe      -0.084813245
     3318 H4           46.752010000         5.483870000         0.857069000 H       550 pe       0.041986755
     3319 H5           46.128281000         3.972520000         0.185165000 H       550 pe       0.041986755
     3320 H6           47.921790000         4.121150000         2.651850000 H       550 pe       0.041986755
     3321 H7           47.459220000         2.655760000         1.752540000 H       550 pe       0.041986755
     3322 H8           48.511560000         3.862320000         0.996076000 H       550 pe       0.041986755
     3323 C1            9.142700000         6.733470000         7.762910000 C.3     551 pe      -0.084813245
     3324 C2            9.681560000         7.598920000         8.903230000 C.3     551 pe      -0.084813245
     3325 H3            9.519960000         7.103270000         6.809670000 H       551 pe       0.041986755
     3326 H4            9.455630000         5.699360000         7.905340000 H       551 pe       0.041986755
     3327 H5            8.053690000         6.783370000         7.762870000 H       551 pe       0.041986755
     3328 H6            9.260810000         7.239300000         9.840350000 H       551 pe       0.041986755
     3329 H8            9.357850000         8.627460000         8.742430000 H       551 pe       0.041986755
     3330 C1           11.216600000         7.542960000         8.953760000 C.3     552 pe      -0.084813245
     3331 C2           11.698100000         8.433320000        10.107200000 C.3     552 pe      -0.084813245
     3332 H4           11.601500000         7.909990000         8.006840000 H       552 pe       0.041986755
     3333 H5           11.551200000         6.520610000         9.101200000 H       552 pe       0.041986755
     3334 H6           11.201300000         8.109850000        11.014200000 H       552 pe       0.041986755
     3335 H8           11.347200000         9.428470000         9.901830000 H       552 pe       0.041986755
     3336 C1           13.217100000         8.515060000        10.372500000 C.3     553 pe      -0.084813245
     3337 C2           14.086300000         8.510850000         9.119630000 C.3     553 pe      -0.084813245
     3338 H4           13.541100000         7.682950000        10.979400000 H       553 pe       0.041986755
     3339 H5           13.406900000         9.428750000        10.932200000 H       553 pe       0.041986755
     3340 H6           13.753900000         9.288890000         8.450800000 H       553 pe       0.041986755
     3341 H8           13.986500000         7.546670000         8.623140000 H       553 pe       0.041986755
     3342 C1           15.571300000         8.697040000         9.452180000 C.3     554 pe      -0.084813245
     3343 C2           16.005200000        10.147400000         9.736600000 C.3     554 pe      -0.084813245
     3344 H4           16.110000000         8.340100000         8.587500000 H       554 pe       0.041986755
     3345 H5           15.839200000         8.067650000        10.298400000 H       554 pe       0.041986755
     3346 H6           16.336200000        10.233600000        10.768100000 H       554 pe       0.041986755
     3347 H8           15.169600000        10.825300000         9.592300000 H       554 pe       0.041986755
     3348 C1           17.138300000        10.607000000         8.805870000 C.3     555 pe      -0.084813245
     3349 C2           18.454000000         9.825810000         8.982960000 C.3     555 pe      -0.084813245
     3350 H4           17.345300000        11.652500000         9.024950000 H       555 pe       0.041986755
     3351 H5           16.792000000        10.549500000         7.781030000 H       555 pe       0.041986755
     3352 H6           18.297600000         8.888150000         9.513390000 H       555 pe       0.041986755
     3353 H8           19.110700000        10.442800000         9.596590000 H       555 pe       0.041986755
     3354 C1           19.175300000         9.558680000         7.645720000 C.3     556 pe      -0.084813245
     3355 C2           18.625100000         8.363860000         6.836200000 C.3     556 pe      -0.084813245
     3356 H4           20.212300000         9.326820000         7.887550000 H       556 pe       0.041986755
     3357 H5           19.168600000        10.463400000         7.037810000 H       556 pe       0.041986755
     3358 H6           17.965800000         7.756350000         7.447320000 H       556 pe       0.041986755
     3359 H8           19.475000000         7.743220000         6.552440000 H       556 pe       0.041986755
     3360 C1           17.916900000         8.805010000         5.540520000 C.3     557 pe      -0.084813245
     3361 C2           17.136700000         7.661580000         4.862940000 C.3     557 pe      -0.084813245
     3362 H4           18.687800000         9.134460000         4.844520000 H       557 pe       0.041986755
     3363 H5           17.257300000         9.643080000         5.724370000 H       557 pe       0.041986755
     3364 H6           17.707600000         6.742290000         4.996180000 H       557 pe       0.041986755
     3365 H8           17.084100000         7.867950000         3.794860000 H       557 pe       0.041986755
     3366 C1           15.705900000         7.405620000         5.384960000 C.3     558 pe      -0.084813245
     3367 C2           14.599300000         8.326660000         4.819500000 C.3     558 pe      -0.084813245
     3368 H4           15.690800000         7.408830000         6.470860000 H       558 pe       0.041986755
     3369 H5           15.445800000         6.395450000         5.068970000 H       558 pe       0.041986755
     3370 H6           13.657200000         7.793330000         4.941040000 H       558 pe       0.041986755
     3371 H8           14.756400000         8.486800000         3.753520000 H       558 pe       0.041986755
     3372 C1           14.492300000         9.691990000         5.525160000 C.3     559 pe      -0.084813245
     3373 C2           13.035200000        10.113400000         5.799570000 C.3     559 pe      -0.084813245
     3374 H4           14.974900000        10.452100000         4.911320000 H       559 pe       0.041986755
     3375 H5           15.013300000         9.621830000         6.472040000 H       559 pe       0.041986755
     3376 H6           12.523800000         9.284610000         6.279870000 H       559 pe       0.041986755
     3377 H8           12.533700000        10.333900000         4.857300000 H       559 pe       0.041986755
     3378 C1           12.991300000        11.365300000         6.705030000 C.3     560 pe      -0.084813245
     3379 C2           11.776800000        11.410600000         7.659070000 C.3     560 pe      -0.084813245
     3380 H4           12.973200000        12.244300000         6.067820000 H       560 pe       0.041986755
     3381 H5           13.900000000        11.416600000         7.300530000 H       560 pe       0.041986755
     3382 H6           11.385400000        10.413300000         7.821820000 H       560 pe       0.041986755
     3383 H8           10.985500000        11.999800000         7.209190000 H       560 pe       0.041986755
     3384 C1           12.195400000        12.008300000         9.018650000 C.3     561 pe      -0.084813245
     3385 C2           11.025100000        12.195700000        10.003600000 C.3     561 pe      -0.084813245
     3386 H4           12.683100000        12.966900000         8.854460000 H       561 pe       0.041986755
     3387 H5           12.905400000        11.330500000         9.472080000 H       561 pe       0.041986755
     3388 H6           10.250700000        11.467100000         9.772620000 H       561 pe       0.041986755
     3389 H8           10.585700000        13.171800000         9.837430000 H       561 pe       0.041986755
     3390 C1           11.386500000        12.019000000        11.504100000 C.3     562 pe      -0.084813245
     3391 C2           12.645200000        12.749800000        12.032500000 C.3     562 pe      -0.084813245
     3392 H4           11.513400000        10.958600000        11.706400000 H       562 pe       0.041986755
     3393 H5           10.522200000        12.362700000        12.071200000 H       562 pe       0.041986755
     3394 H6           12.489300000        13.811200000        12.119900000 H       562 pe       0.041986755
     3395 H8           13.490000000        12.585900000        11.367200000 H       562 pe       0.041986755
     3396 C1           13.097500000        12.318500000        13.428900000 C.3     563 pe      -0.084813245
     3397 C2           11.979200000        12.148500000        14.490900000 C.3     563 pe      -0.084813245
     3398 H4           13.780300000        13.079600000        13.767000000 H       563 pe       0.041986755
     3399 H5           13.696100000        11.431400000        13.298400000 H       563 pe       0.041986755
     3400 H6           11.510000000        11.173100000        14.379300000 H       563 pe       0.041986755
     3401 H8           11.222400000        12.914700000        14.333100000 H       563 pe       0.041986755
     3402 C1           12.524200000        12.350300000        15.924300000 C.3     564 pe      -0.084813245
     3403 C2           12.012800000        11.395000000        17.027200000 C.3     564 pe      -0.084813245
     3404 H4           12.279400000        13.369100000        16.210200000 H       564 pe       0.041986755
     3405 H5           13.608100000        12.244600000        15.907000000 H       564 pe       0.041986755
     3406 H6           12.886300000        11.022600000        17.558000000 H       564 pe       0.041986755
     3407 H8           11.475500000        10.545500000        16.611300000 H       564 pe       0.041986755
     3408 C1           11.144600000        12.057100000        18.097700000 C.3     565 pe      -0.084813245
     3409 C2            9.697190000        12.105900000        17.618200000 C.3     565 pe      -0.084813245
     3410 H4           11.521000000        13.051000000        18.337400000 H       565 pe       0.041986755
     3411 H5           11.180800000        11.446600000        19.000300000 H       565 pe       0.041986755
     3412 H6            9.150800000        11.272100000        18.059700000 H       565 pe       0.041986755
     3413 H8            9.679210000        12.021500000        16.533400000 H       565 pe       0.041986755
     3414 C1            9.067550000        13.433100000        18.040600000 C.3     566 pe      -0.084813245
     3415 C2            7.548670000        13.432900000        17.846700000 C.3     566 pe      -0.084813245
     3416 H4            9.513070000        14.236700000        17.457200000 H       566 pe       0.041986755
     3417 H5            9.270310000        13.607800000        19.097400000 H       566 pe       0.041986755
     3418 H6            7.205720000        14.455500000        17.996000000 H       566 pe       0.041986755
     3419 H8            7.119180000        12.802500000        18.619900000 H       566 pe       0.041986755
     3420 C1            7.117420000        12.918500000        16.458600000 C.3     567 pe      -0.084813245
     3421 C2            5.713280000        13.383000000        16.050100000 C.3     567 pe      -0.084813245
     3422 H4            7.165220000        11.830300000        16.425200000 H       567 pe       0.041986755
     3423 H5            7.801710000        13.300400000        15.713200000 H       567 pe       0.041986755
     3424 H6            5.745530000        13.609500000        14.984400000 H       567 pe       0.041986755
     3425 H8            5.428450000        14.294000000        16.572600000 H       567 pe       0.041986755
     3426 C1            4.645400000        12.299200000        16.245100000 C.3     568 pe      -0.084813245
     3427 C2            4.503390000        11.759600000        17.677600000 C.3     568 pe      -0.084813245
     3428 H4            4.879510000        11.462300000        15.586700000 H       568 pe       0.041986755
     3429 H5            3.690520000        12.717800000        15.932100000 H       568 pe       0.041986755
     3430 H6            5.434330000        11.311500000        18.009600000 H       568 pe       0.041986755
     3431 H8            3.766350000        10.971200000        17.631200000 H       568 pe       0.041986755
     3432 C1            4.012690000        12.818100000        18.680200000 C.3     569 pe      -0.084813245
     3433 C2            3.675880000        12.205000000        20.051100000 C.3     569 pe      -0.084813245
     3434 H4            3.099070000        13.260600000        18.284200000 H       569 pe       0.041986755
     3435 H5            4.752300000        13.604700000        18.802800000 H       569 pe       0.041986755
     3436 H6            3.146220000        11.265700000        19.893300000 H       569 pe       0.041986755
     3437 H8            3.000980000        12.880200000        20.576200000 H       569 pe       0.041986755
     3438 C1            4.887120000        11.918700000        20.957500000 C.3     570 pe      -0.084813245
     3439 C2            5.558510000        13.180700000        21.532200000 C.3     570 pe      -0.084813245
     3440 H4            5.639980000        11.356100000        20.411000000 H       570 pe       0.041986755
     3441 H5            4.513620000        11.299200000        21.769800000 H       570 pe       0.041986755
     3442 H6            4.981330000        14.057200000        21.241400000 H       570 pe       0.041986755
     3443 H8            6.551150000        13.276700000        21.096800000 H       570 pe       0.041986755
     3444 C1            5.659350000        13.190500000        23.072600000 C.3     571 pe      -0.084813245
     3445 C2            6.495730000        12.064800000        23.716900000 C.3     571 pe      -0.084813245
     3446 H4            4.647430000        13.128700000        23.473300000 H       571 pe       0.041986755
     3447 H5            6.081900000        14.147800000        23.377000000 H       571 pe       0.041986755
     3448 H6            6.172000000        11.106000000        23.328800000 H       571 pe       0.041986755
     3449 H8            6.290210000        12.076100000        24.787500000 H       571 pe       0.041986755
     3450 C1            8.015310000        12.240700000        23.534600000 C.3     572 pe      -0.084813245
     3451 C2            8.815030000        10.996000000        23.969700000 C.3     572 pe      -0.084813245
     3452 H4            8.334710000        13.080600000        24.151900000 H       572 pe       0.041986755
     3453 H5            8.252700000        12.470000000        22.498100000 H       572 pe       0.041986755
     3454 H6            8.502660000        10.696100000        24.969600000 H       572 pe       0.041986755
     3455 H8            9.869890000        11.268000000        23.997300000 H       572 pe       0.041986755
     3456 C1            8.627180000         9.823640000        22.989300000 C.3     573 pe      -0.084813245
     3457 C2            9.702660000         8.724840000        23.094300000 C.3     573 pe      -0.084813245
     3458 H4            8.670270000        10.211800000        21.972000000 H       573 pe       0.041986755
     3459 H5            7.647010000         9.383120000        23.140400000 H       573 pe       0.041986755
     3460 H6           10.674100000         9.182120000        22.907100000 H       573 pe       0.041986755
     3461 H8            9.528570000         8.000760000        22.300400000 H       573 pe       0.041986755
     3462 C1            9.790840000         7.963190000        24.431800000 C.3     574 pe      -0.084813245
     3463 C2            8.486220000         7.359900000        24.991800000 C.3     574 pe      -0.084813245
     3464 H4           10.189300000         8.643230000        25.184400000 H       574 pe       0.041986755
     3465 H5           10.512600000         7.157640000        24.304700000 H       574 pe       0.041986755
     3466 H6            7.855040000         8.178850000        25.333300000 H       574 pe       0.041986755
     3467 H8            8.747700000         6.765610000        25.865900000 H       574 pe       0.041986755
     3468 C1            7.640350000         6.487060000        24.041700000 C.3     575 pe      -0.084813245
     3469 C2            8.297420000         5.196790000        23.522400000 C.3     575 pe      -0.084813245
     3470 H4            7.340640000         7.072380000        23.179800000 H       575 pe       0.041986755
     3471 H5            6.726710000         6.217230000        24.570700000 H       575 pe       0.041986755
     3472 H6            9.234140000         5.426060000        23.016100000 H       575 pe       0.041986755
     3473 H8            7.606010000         4.771160000        22.798700000 H       575 pe       0.041986755
     3474 C1            8.538900000         4.164860000        24.635400000 C.3     576 pe      -0.084813245
     3475 C2            8.532420000         2.712160000        24.125700000 C.3     576 pe      -0.084813245
     3476 H4            7.742020000         4.249000000        25.373000000 H       576 pe       0.041986755
     3477 H5            9.487370000         4.381880000        25.119000000 H       576 pe       0.041986755
     3478 H6            7.633220000         2.550370000        23.532200000 H       576 pe       0.041986755
     3479 H8            8.493850000         2.052490000        24.992400000 H       576 pe       0.041986755
     3480 C1            9.780730000         2.347870000        23.305100000 C.3     577 pe      -0.084813245
     3481 C2            9.679240000         0.912068000        22.759600000 C.3     577 pe      -0.084813245
     3482 H4           10.656400000         2.433270000        23.934600000 H       577 pe       0.041986755
     3483 H5            9.892470000         3.035950000        22.469200000 H       577 pe       0.041986755
     3484 H6            9.913960000         0.926697000        21.696100000 H       577 pe       0.041986755
     3485 H8            8.658020000         0.550333000        22.873600000 H       577 pe       0.041986755
     3486 C1           10.617300000        -0.081000000        23.466400000 C.3     578 pe      -0.084813245
     3487 C2           12.056900000         0.052106400        22.949100000 C.3     578 pe      -0.084813245
     3488 H4           10.261600000        -1.081600000        23.229700000 H       578 pe       0.041986755
     3489 H5           10.578500000         0.062101900        24.545300000 H       578 pe       0.041986755
     3490 H6           12.436300000         1.048230000        23.149200000 H       578 pe       0.041986755
     3491 H8           12.031900000        -0.097900000        21.885300000 H       578 pe       0.041986755
     3492 C1           13.015000000        -0.996300000        23.526800000 C.3     579 pe      -0.084813245
     3493 C2           14.421800000        -0.801900000        22.935600000 C.3     579 pe      -0.084813245
     3494 H4           12.664300000        -1.986100000        23.244900000 H       579 pe       0.041986755
     3495 H5           13.031300000        -0.907800000        24.609000000 H       579 pe       0.041986755
     3496 H6           14.756900000         0.222730000        23.070600000 H       579 pe       0.041986755
     3497 H8           14.356900000        -1.000500000        21.870000000 H       579 pe       0.041986755
     3498 C1           15.461500000        -1.786000000        23.491700000 C.3     580 pe      -0.084813245
     3499 C2           15.942300000        -1.493000000        24.923400000 C.3     580 pe      -0.084813245
     3500 H4           16.320800000        -1.796400000        22.821300000 H       580 pe       0.041986755
     3501 H5           15.021900000        -2.783000000        23.482000000 H       580 pe       0.041986755
     3502 H6           16.471000000        -2.385700000        25.252200000 H       580 pe       0.041986755
     3503 H8           15.085100000        -1.357600000        25.574600000 H       580 pe       0.041986755
     3504 C1           16.938100000        -0.319800000        25.049400000 C.3     581 pe      -0.084813245
     3505 C2           16.338100000         0.993796000        25.580100000 C.3     581 pe      -0.084813245
     3506 H4           17.390500000        -0.125300000        24.078300000 H       581 pe       0.041986755
     3507 H5           17.732700000        -0.619400000        25.729800000 H       581 pe       0.041986755
     3508 H6           15.498700000         1.278520000        24.966600000 H       581 pe       0.041986755
     3509 H8           17.096600000         1.766310000        25.472700000 H       581 pe       0.041986755
     3510 C1           15.959000000         0.925955000        27.070700000 C.3     582 pe      -0.084813245
     3511 C2           15.012000000         2.033890000        27.550900000 C.3     582 pe      -0.084813245
     3512 H4           16.876300000         1.078190000        27.619600000 H       582 pe       0.041986755
     3513 H5           15.563100000        -0.046300000        27.349000000 H       582 pe       0.041986755
     3514 H6           15.223300000         2.956280000        27.016700000 H       582 pe       0.041986755
     3515 H8           15.239600000         2.202280000        28.603100000 H       582 pe       0.041986755
     3516 C1           13.519100000         1.662180000        27.485500000 C.3     583 pe      -0.084813245
     3517 C2           12.852700000         1.920580000        26.127800000 C.3     583 pe      -0.084813245
     3518 H4           12.993500000         2.243250000        28.242100000 H       583 pe       0.041986755
     3519 H5           13.390900000         0.609661000        27.735400000 H       583 pe       0.041986755
     3520 H6           11.843300000         1.518910000        26.176500000 H       583 pe       0.041986755
     3521 H8           13.369500000         1.385010000        25.347800000 H       583 pe       0.041986755
     3522 C1           12.752800000         3.413230000        25.784300000 C.3     584 pe      -0.084813245
     3523 C2           13.582400000         3.821430000        24.563600000 C.3     584 pe      -0.084813245
     3524 H4           13.064400000         4.014930000        26.636100000 H       584 pe       0.041986755
     3525 H5           11.714200000         3.631250000        25.570500000 H       584 pe       0.041986755
     3526 H6           13.414300000         3.141550000        23.731100000 H       584 pe       0.041986755
     3527 H8           14.628600000         3.804980000        24.841000000 H       584 pe       0.041986755
     3528 C1           13.151600000         5.229970000        24.138000000 C.3     585 pe      -0.084813245
     3529 C2           14.132900000         5.902700000        23.168800000 C.3     585 pe      -0.084813245
     3530 H4           13.015300000         5.859610000        25.012700000 H       585 pe       0.041986755
     3531 H5           12.190900000         5.145320000        23.629600000 H       585 pe       0.041986755
     3532 H6           13.629400000         6.790360000        22.786100000 H       585 pe       0.041986755
     3533 H8           14.309200000         5.241670000        22.328200000 H       585 pe       0.041986755
     3534 C1           15.448900000         6.388750000        23.815700000 C.3     586 pe      -0.084813245
     3535 C2           16.710600000         5.523320000        23.616000000 C.3     586 pe      -0.084813245
     3536 H4           15.299200000         6.516300000        24.886200000 H       586 pe       0.041986755
     3537 H5           15.658900000         7.369500000        23.395900000 H       586 pe       0.041986755
     3538 H6           16.629000000         4.590610000        24.166600000 H       586 pe       0.041986755
     3539 H8           17.545500000         6.078050000        24.042400000 H       586 pe       0.041986755
     3540 C1           17.053800000         5.245920000        22.143500000 C.3     587 pe      -0.084813245
     3541 C2           16.756700000         3.788150000        21.749800000 C.3     587 pe      -0.084813245
     3542 H4           18.107900000         5.464430000        21.975200000 H       587 pe       0.041986755
     3543 H5           16.475700000         5.910440000        21.503700000 H       587 pe       0.041986755
     3544 H6           16.745100000         3.723890000        20.672000000 H       587 pe       0.041986755
     3545 H8           15.787500000         3.484930000        22.138800000 H       587 pe       0.041986755
     3546 C1           17.783400000         2.796350000        22.283000000 C.3     588 pe      -0.084813245
     3547 C2           18.445700000         1.912600000        21.209800000 C.3     588 pe      -0.084813245
     3548 H4           17.265700000         2.137030000        22.974500000 H       588 pe       0.041986755
     3549 H5           18.521900000         3.351000000        22.835000000 H       588 pe       0.041986755
     3550 H6           17.672700000         1.356490000        20.693400000 H       588 pe       0.041986755
     3551 H8           19.069800000         1.188020000        21.730600000 H       588 pe       0.041986755
     3552 C1           19.357900000         2.656920000        20.213500000 C.3     589 pe      -0.084813245
     3553 C2           19.010700000         2.405650000        18.735000000 C.3     589 pe      -0.084813245
     3554 H4           20.368900000         2.283030000        20.370300000 H       589 pe       0.041986755
     3555 H5           19.364700000         3.725350000        20.417500000 H       589 pe       0.041986755
     3556 H6           18.416700000         1.507230000        18.613300000 H       589 pe       0.041986755
     3557 H8           19.943700000         2.261400000        18.195200000 H       589 pe       0.041986755
     3558 C1           18.303400000         3.599580000        18.086200000 C.3     590 pe      -0.084813245
     3559 C2           17.151600000         3.174310000        17.166500000 C.3     590 pe      -0.084813245
     3560 H4           19.051600000         4.157150000        17.525200000 H       590 pe       0.041986755
     3561 H5           17.882000000         4.263240000        18.833300000 H       590 pe       0.041986755
     3562 H6           16.527100000         4.045390000        16.987100000 H       590 pe       0.041986755
     3563 H8           16.538700000         2.429990000        17.666500000 H       590 pe       0.041986755
     3564 C1           17.672700000         2.573520000        15.854800000 C.3     591 pe      -0.084813245
     3565 C2           17.137800000         3.263580000        14.595900000 C.3     591 pe      -0.084813245
     3566 H4           17.348000000         1.537110000        15.821800000 H       591 pe       0.041986755
     3567 H5           18.760300000         2.599470000        15.841700000 H       591 pe       0.041986755
     3568 H6           16.721200000         4.239010000        14.813200000 H       591 pe       0.041986755
     3569 H8           16.360400000         2.642970000        14.172100000 H       591 pe       0.041986755
     3570 C1           18.257600000         3.416460000        13.567500000 C.3     592 pe      -0.084813245
     3571 C2           17.700100000         4.059570000        12.294100000 C.3     592 pe      -0.084813245
     3572 H4           18.662300000         2.432690000        13.332200000 H       592 pe       0.041986755
     3573 H5           19.044400000         4.042780000        13.979800000 H       592 pe       0.041986755
     3574 H6           17.163400000         4.979600000        12.524600000 H       592 pe       0.041986755
     3575 H8           17.002500000         3.360780000        11.833000000 H       592 pe       0.041986755
     3576 C1           18.828200000         4.335130000        11.294300000 C.3     593 pe      -0.084813245
     3577 C2           19.481700000         5.719180000        11.460600000 C.3     593 pe      -0.084813245
     3578 H4           18.368000000         4.302420000        10.308400000 H       593 pe       0.041986755
     3579 H5           19.576300000         3.548110000        11.368300000 H       593 pe       0.041986755
     3580 H6           19.147600000         6.165690000        12.387200000 H       593 pe       0.041986755
     3581 H8           19.123400000         6.342830000        10.641400000 H       593 pe       0.041986755
     3582 C1           21.026600000         5.725300000        11.408300000 C.3     594 pe      -0.084813245
     3583 C2           21.720700000         5.229790000        12.689000000 C.3     594 pe      -0.084813245
     3584 H4           21.356700000         6.744570000        11.209800000 H       594 pe       0.041986755
     3585 H5           21.365800000         5.102170000        10.585400000 H       594 pe       0.041986755
     3586 H6           22.755400000         4.986680000        12.453900000 H       594 pe       0.041986755
     3587 H8           21.236700000         4.318050000        13.031400000 H       594 pe       0.041986755
     3588 C1           21.686400000         6.266620000        13.824300000 C.3     595 pe      -0.084813245
     3589 C2           22.905800000         7.204420000        13.866000000 C.3     595 pe      -0.084813245
     3590 H4           21.588500000         5.727970000        14.761200000 H       595 pe       0.041986755
     3591 H5           20.816600000         6.897210000        13.714100000 H       595 pe       0.041986755
     3592 H6           22.566400000         8.203520000        14.139700000 H       595 pe       0.041986755
     3593 H8           23.354700000         7.264660000        12.875900000 H       595 pe       0.041986755
     3594 C1           23.966000000         6.752080000        14.883000000 C.3     596 pe      -0.084813245
     3595 C2           23.559000000         7.097030000        16.321200000 C.3     596 pe      -0.084813245
     3596 H4           24.886400000         7.294920000        14.683800000 H       596 pe       0.041986755
     3597 H5           24.151000000         5.690420000        14.763600000 H       596 pe       0.041986755
     3598 H6           22.485200000         7.220550000        16.369400000 H       596 pe       0.041986755
     3599 H8           24.034100000         8.042500000        16.580800000 H       596 pe       0.041986755
     3600 C1           23.963000000         6.042880000        17.360200000 C.3     597 pe      -0.084813245
     3601 C2           22.749800000         5.154040000        17.690100000 C.3     597 pe      -0.084813245
     3602 H4           24.271000000         6.557390000        18.270000000 H       597 pe       0.041986755
     3603 H5           24.803100000         5.461690000        16.987900000 H       597 pe       0.041986755
     3604 H6           22.314400000         4.771120000        16.774100000 H       597 pe       0.041986755
     3605 H8           22.001600000         5.763480000        18.195400000 H       597 pe       0.041986755
     3606 C1           23.093600000         3.991540000        18.631400000 C.3     598 pe      -0.084813245
     3607 C2           23.797300000         2.821600000        17.930900000 C.3     598 pe      -0.084813245
     3608 H4           22.176000000         3.626550000        19.090000000 H       598 pe       0.041986755
     3609 H5           23.745500000         4.369340000        19.415600000 H       598 pe       0.041986755
     3610 H6           24.247400000         2.195810000        18.699400000 H       598 pe       0.041986755
     3611 H8           24.587200000         3.202810000        17.293000000 H       598 pe       0.041986755
     3612 C1           22.841100000         1.934180000        17.121000000 C.3     599 pe      -0.084813245
     3613 C2           23.640700000         0.993506000        16.206400000 C.3     599 pe      -0.084813245
     3614 H4           22.130600000         2.511610000        16.536200000 H       599 pe       0.041986755
     3615 H5           22.273900000         1.339090000        17.826000000 H       599 pe       0.041986755
     3616 H6           23.228600000        -0.007200000        16.307500000 H       599 pe       0.041986755
     3617 H8           24.681000000         0.959134000        16.523700000 H       599 pe       0.041986755
     3618 C1           23.573100000         1.388400000        14.722500000 C.3     600 pe      -0.084813245
     3619 C2           24.077200000         2.804510000        14.451000000 C.3     600 pe      -0.084813245
     3620 H4           22.548200000         1.297580000        14.363400000 H       600 pe       0.041986755
     3621 H5           24.208400000         0.711035000        14.158000000 H       600 pe       0.041986755
     3622 H6           23.359700000         3.526160000        14.827600000 H       600 pe       0.041986755
     3623 H7           25.044200000         2.951160000        14.928400000 H       600 pe       0.041986755
     3624 H8           24.181400000         2.949440000        13.378900000 H       600 pe       0.041986755
     3625 C1           29.253500000        50.251250000        -6.762200000 C.3     601 pe      -0.084813245
     3626 C2           28.239700000        49.934350000        -5.658000000 C.3     601 pe      -0.084813245
     3627 H3           29.412400000        51.325330000        -6.800300000 H       601 pe       0.041986755
     3628 H4           30.203000000        49.757130000        -6.554000000 H       601 pe       0.041986755
     3629 H5           28.875400000        49.918670000        -7.721700000 H       601 pe       0.041986755
     3630 H6           27.593200000        50.803320000        -5.542700000 H       601 pe       0.041986755
     3631 H8           28.782800000        49.799290000        -4.727000000 H       601 pe       0.041986755
     3632 C1           27.328900000        48.715990000        -5.917800000 C.3     602 pe      -0.084813245
     3633 C2           27.933800000        47.577000000        -6.760600000 C.3     602 pe      -0.084813245
     3634 H4           26.451100000        49.079050000        -6.448200000 H       602 pe       0.041986755
     3635 H5           26.996700000        48.328810000        -4.956600000 H       602 pe       0.041986755
     3636 H6           29.004600000        47.677350000        -6.862600000 H       602 pe       0.041986755
     3637 H8           27.516100000        47.659750000        -7.761400000 H       602 pe       0.041986755
     3638 C1           27.588100000        46.170184000        -6.244800000 C.3     603 pe      -0.084813245
     3639 C2           28.330200000        45.686466000        -4.992400000 C.3     603 pe      -0.084813245
     3640 H4           27.806500000        45.459466000        -7.040100000 H       603 pe       0.041986755
     3641 H5           26.523000000        46.125926000        -6.026800000 H       603 pe       0.041986755
     3642 H6           28.220400000        44.602100000        -4.981100000 H       603 pe       0.041986755
     3643 H8           27.809700000        46.053757000        -4.114900000 H       603 pe       0.041986755
     3644 C1           29.848900000        45.975409000        -4.975300000 C.3     604 pe      -0.084813245
     3645 C2           30.365200000        47.150350000        -4.115700000 C.3     604 pe      -0.084813245
     3646 H4           30.223400000        46.086974000        -5.989500000 H       604 pe       0.041986755
     3647 H5           30.347400000        45.088000000        -4.622600000 H       604 pe       0.041986755
     3648 H6           30.463100000        48.020420000        -4.757200000 H       604 pe       0.041986755
     3649 H8           31.355900000        46.840660000        -3.807900000 H       604 pe       0.041986755
     3650 C1           29.537100000        47.521430000        -2.862100000 C.3     605 pe      -0.084813245
     3651 C2           30.146700000        48.486730000        -1.821400000 C.3     605 pe      -0.084813245
     3652 H4           29.277700000        46.607190000        -2.329400000 H       605 pe       0.041986755
     3653 H5           28.612700000        47.990870000        -3.184100000 H       605 pe       0.041986755
     3654 H6           30.462400000        47.913030000        -0.963800000 H       605 pe       0.041986755
     3655 H8           29.320500000        49.110420000        -1.480900000 H       605 pe       0.041986755
     3656 C1           31.266200000        49.455070000        -2.252500000 C.3     606 pe      -0.084813245
     3657 C2           32.715300000        48.926850000        -2.154700000 C.3     606 pe      -0.084813245
     3658 H4           31.189000000        50.340770000        -1.622700000 H       606 pe       0.041986755
     3659 H5           31.082000000        49.778470000        -3.275100000 H       606 pe       0.041986755
     3660 H6           33.323400000        49.608800000        -2.748600000 H       606 pe       0.041986755
     3661 H8           32.804500000        47.951860000        -2.602100000 H       606 pe       0.041986755
     3662 C1           33.343500000        48.908010000        -0.747800000 C.3     607 pe      -0.084813245
     3663 C2           33.224500000        47.601190000         0.065615100 C.3     607 pe      -0.084813245
     3664 H4           32.913900000        49.714600000        -0.155000000 H       607 pe       0.041986755
     3665 H5           34.405200000        49.124590000        -0.866800000 H       607 pe       0.041986755
     3666 H6           32.196300000        47.304430000         0.214744000 H       607 pe       0.041986755
     3667 H8           33.615500000        47.847990000         1.052540000 H       607 pe       0.041986755
     3668 C1           34.076100000        46.410260000        -0.415300000 C.3     608 pe      -0.084813245
     3669 C2           33.510300000        45.429348500        -1.470200000 C.3     608 pe      -0.084813245
     3670 H4           34.287500000        45.829279000         0.476295000 H       608 pe       0.041986755
     3671 H5           35.028500000        46.789780000        -0.783100000 H       608 pe       0.041986755
     3672 H6           34.122300000        44.532800000        -1.406100000 H       608 pe       0.041986755
     3673 H8           33.640400000        45.847482000        -2.465100000 H       608 pe       0.041986755
     3674 C1           32.050600000        44.979900000        -1.294300000 C.3     609 pe      -0.084813245
     3675 C2           31.727400000        43.811200000        -2.241100000 C.3     609 pe      -0.084813245
     3676 H4           31.394500000        45.806890000        -1.521500000 H       609 pe       0.041986755
     3677 H5           31.904200000        44.664100000        -0.269200000 H       609 pe       0.041986755
     3678 H6           32.365200000        42.977700000        -1.958400000 H       609 pe       0.041986755
     3679 H8           31.978400000        44.119100000        -3.251100000 H       609 pe       0.041986755
     3680 C1           30.255500000        43.341500000        -2.245000000 C.3     610 pe      -0.084813245
     3681 C2           30.169900000        41.832400000        -2.521800000 C.3     610 pe      -0.084813245
     3682 H4           29.693700000        43.840600000        -3.017200000 H       610 pe       0.041986755
     3683 H5           29.767700000        43.602300000        -1.327800000 H       610 pe       0.041986755
     3684 H6           30.829400000        41.279500000        -1.864500000 H       610 pe       0.041986755
     3685 H8           30.508800000        41.683100000        -3.545600000 H       610 pe       0.041986755
     3686 C1           28.749700000        41.250000000        -2.429800000 C.3     611 pe      -0.084813245
     3687 C2           28.112900000        41.184500000        -1.025500000 C.3     611 pe      -0.084813245
     3688 H4           28.770600000        40.245900000        -2.852600000 H       611 pe       0.041986755
     3689 H5           28.101500000        41.859400000        -3.058700000 H       611 pe       0.041986755
     3690 H6           27.049200000        41.019500000        -1.195700000 H       611 pe       0.041986755
     3691 H8           28.200700000        42.134200000        -0.521100000 H       611 pe       0.041986755
     3692 C1           28.572100000        40.023000000        -0.119100000 C.3     612 pe      -0.084813245
     3693 C2           29.822300000        40.219900000         0.766366000 C.3     612 pe      -0.084813245
     3694 H4           28.758100000        39.157400000        -0.752900000 H       612 pe       0.041986755
     3695 H5           27.731900000        39.783500000         0.529405000 H       612 pe       0.041986755
     3696 H6           30.570500000        40.808000000         0.260051000 H       612 pe       0.041986755
     3697 H8           30.247600000        39.227800000         0.916351000 H       612 pe       0.041986755
     3698 C1           29.564200000        40.790200000         2.175620000 C.3     613 pe      -0.084813245
     3699 C2           30.261400000        42.118500000         2.470580000 C.3     613 pe      -0.084813245
     3700 H4           30.007000000        40.088100000         2.873220000 H       613 pe       0.041986755
     3701 H5           28.499300000        40.877300000         2.388360000 H       613 pe       0.041986755
     3702 H6           31.318300000        41.998700000         2.297700000 H       613 pe       0.041986755
     3703 H8           30.116100000        42.373600000         3.514680000 H       613 pe       0.041986755
     3704 C1           29.738400000        43.217500000         1.557050000 C.3     614 pe      -0.084813245
     3705 C2           30.037300000        44.626100000         2.048910000 C.3     614 pe      -0.084813245
     3706 H4           28.665000000        43.110000000         1.433690000 H       614 pe       0.041986755
     3707 H5           30.262200000        43.075200000         0.631340000 H       614 pe       0.041986755
     3708 H6           31.113000000        44.761500000         2.123220000 H       614 pe       0.041986755
     3709 H8           29.606800000        44.715600000         3.028880000 H       614 pe       0.041986755
     3710 C1           29.456900000        45.710574000         1.122830000 C.3     615 pe      -0.084813245
     3711 C2           27.944200000        45.921201000         1.301190000 C.3     615 pe      -0.084813245
     3712 H4           29.617400000        45.435759500         0.088936000 H       615 pe       0.041986755
     3713 H5           30.003900000        46.630910000         1.311060000 H       615 pe       0.041986755
     3714 H6           27.587100000        45.252500000         2.074830000 H       615 pe       0.041986755
     3715 H8           27.446000000        45.651393000         0.370591000 H       615 pe       0.041986755
     3716 C1           27.603100000        47.387150000         1.631810000 C.3     616 pe      -0.084813245
     3717 C2           26.299900000        47.522830000         2.434350000 C.3     616 pe      -0.084813245
     3718 H4           27.503600000        47.941120000         0.698919000 H       616 pe       0.041986755
     3719 H5           28.403100000        47.835340000         2.203940000 H       616 pe       0.041986755
     3720 H6           25.997100000        46.558660000         2.828230000 H       616 pe       0.041986755
     3721 H8           25.522500000        47.863450000         1.758240000 H       616 pe       0.041986755
     3722 C1           26.423200000        48.537520000         3.589810000 C.3     617 pe      -0.084813245
     3723 C2           25.333900000        48.271650000         4.635930000 C.3     617 pe      -0.084813245
     3724 H4           26.292100000        49.540250000         3.184740000 H       617 pe       0.041986755
     3725 H5           27.392800000        48.481510000         4.084190000 H       617 pe       0.041986755
     3726 H6           24.452500000        47.924980000         4.112670000 H       617 pe       0.041986755
     3727 H8           25.100400000        49.192840000         5.169130000 H       617 pe       0.041986755
     3728 C1           25.818800000        47.220480000         5.642810000 C.3     618 pe      -0.084813245
     3729 C2           24.694400000        46.375050000         6.265400000 C.3     618 pe      -0.084813245
     3730 H4           26.359200000        47.729610000         6.436330000 H       618 pe       0.041986755
     3731 H5           26.509400000        46.566470000         5.135580000 H       618 pe       0.041986755
     3732 H6           23.790700000        46.409570000         5.670150000 H       618 pe       0.041986755
     3733 H8           24.480900000        46.782780000         7.249870000 H       618 pe       0.041986755
     3734 C1           25.088300000        44.898900000         6.404710000 C.3     619 pe      -0.084813245
     3735 C2           25.004700000        44.169600000         5.054600000 C.3     619 pe      -0.084813245
     3736 H4           24.388100000        44.409900000         7.080200000 H       619 pe       0.041986755
     3737 H5           26.080200000        44.830600000         6.835870000 H       619 pe       0.041986755
     3738 H6           25.048000000        44.868100000         4.223460000 H       619 pe       0.041986755
     3739 H8           24.038800000        43.665900000         5.013520000 H       619 pe       0.041986755
     3740 C1           26.099000000        43.109400000         4.878340000 C.3     620 pe      -0.084813245
     3741 C2           27.514100000        43.680800000         4.662190000 C.3     620 pe      -0.084813245
     3742 H4           25.848000000        42.542800000         3.981670000 H       620 pe       0.041986755
     3743 H5           26.069500000        42.426200000         5.718120000 H       620 pe       0.041986755
     3744 H6           27.457000000        44.702400000         4.312580000 H       620 pe       0.041986755
     3745 H8           27.944100000        43.079400000         3.872020000 H       620 pe       0.041986755
     3746 C1           28.453400000        43.591100000         5.878740000 C.3     621 pe      -0.084813245
     3747 C2           29.028300000        44.932400000         6.370210000 C.3     621 pe      -0.084813245
     3748 H4           29.258100000        42.889600000         5.674670000 H       621 pe       0.041986755
     3749 H5           27.880800000        43.199700000         6.704150000 H       621 pe       0.041986755
     3750 H6           29.277300000        44.798800000         7.421560000 H       621 pe       0.041986755
     3751 H8           28.266200000        45.695713000         6.304600000 H       621 pe       0.041986755
     3752 C1           30.307900000        45.437463600         5.690200000 C.3     622 pe      -0.084813245
     3753 C2           30.072100000        46.758240000         4.936400000 C.3     622 pe      -0.084813245
     3754 H4           30.710100000        44.682800000         5.021720000 H       622 pe       0.041986755
     3755 H5           31.034300000        45.621661000         6.480600000 H       622 pe       0.041986755
     3756 H6           29.629200000        47.475420000         5.605070000 H       622 pe       0.041986755
     3757 H8           29.371300000        46.607250000         4.124480000 H       622 pe       0.041986755
     3758 C1           31.391100000        47.334470000         4.397770000 C.3     623 pe      -0.084813245
     3759 C2           31.182900000        48.667630000         3.656900000 C.3     623 pe      -0.084813245
     3760 H4           31.813800000        46.622020000         3.692010000 H       623 pe       0.041986755
     3761 H5           32.099200000        47.468400000         5.212200000 H       623 pe       0.041986755
     3762 H6           30.142300000        48.779490000         3.368140000 H       623 pe       0.041986755
     3763 H8           31.777500000        48.624220000         2.745750000 H       623 pe       0.041986755
     3764 C1           31.625000000        49.925490000         4.427450000 C.3     624 pe      -0.084813245
     3765 C2           30.690800000        50.305740000         5.589280000 C.3     624 pe      -0.084813245
     3766 H4           31.603400000        50.752460000         3.717840000 H       624 pe       0.041986755
     3767 H5           32.650700000        49.812550000         4.777320000 H       624 pe       0.041986755
     3768 H6           29.739200000        49.795290000         5.478500000 H       624 pe       0.041986755
     3769 H8           30.499000000        51.377020000         5.532030000 H       624 pe       0.041986755
     3770 C1           31.334000000        50.014210000         6.956950000 C.3     625 pe      -0.084813245
     3771 C2           30.303400000        49.939530000         8.095140000 C.3     625 pe      -0.084813245
     3772 H4           32.023900000        50.829050000         7.177170000 H       625 pe       0.041986755
     3773 H5           31.900400000        49.086490000         6.931070000 H       625 pe       0.041986755
     3774 H6           29.626400000        50.787440000         8.010250000 H       625 pe       0.041986755
     3775 H8           30.838300000        49.991060000         9.042440000 H       625 pe       0.041986755
     3776 C1           29.489900000        48.638970000         8.063740000 C.3     626 pe      -0.084813245
     3777 C2           28.818200000        48.323540000         9.398650000 C.3     626 pe      -0.084813245
     3778 H4           30.147600000        47.804380000         7.830160000 H       626 pe       0.041986755
     3779 H5           28.710700000        48.735520000         7.310110000 H       626 pe       0.041986755
     3780 H6           28.405500000        49.237750000         9.814570000 H       626 pe       0.041986755
     3781 H8           29.552400000        47.891580000        10.078000000 H       626 pe       0.041986755
     3782 C1           27.677300000        47.333090000         9.148000000 C.3     627 pe      -0.084813245
     3783 C2           27.293200000        46.534610000        10.400300000 C.3     627 pe      -0.084813245
     3784 H4           27.988900000        46.619990000         8.395790000 H       627 pe       0.041986755
     3785 H5           26.829600000        47.895470000         8.769960000 H       627 pe       0.041986755
     3786 H6           27.243900000        47.175690000        11.272600000 H       627 pe       0.041986755
     3787 H8           28.067600000        45.787071000        10.566500000 H       627 pe       0.041986755
     3788 C1           25.950800000        45.810257000        10.218400000 C.3     628 pe      -0.084813245
     3789 C2           24.733200000        46.739330000        10.378600000 C.3     628 pe      -0.084813245
     3790 H4           25.883200000        45.028700000        10.972900000 H       628 pe       0.041986755
     3791 H5           25.938200000        45.342500000         9.236990000 H       628 pe       0.041986755
     3792 H6           24.810500000        47.594980000         9.712580000 H       628 pe       0.041986755
     3793 H8           24.684100000        47.088760000        11.406600000 H       628 pe       0.041986755
     3794 C1           23.452500000        45.964178000        10.048700000 C.3     629 pe      -0.084813245
     3795 C2           22.205900000        46.859920000         9.999820000 C.3     629 pe      -0.084813245
     3796 H4           23.302700000        45.208100000        10.802700000 H       629 pe       0.041986755
     3797 H5           23.576100000        45.457840000         9.097420000 H       629 pe       0.041986755
     3798 H6           22.499500000        47.906850000         9.965250000 H       629 pe       0.041986755
     3799 H8           21.610000000        46.689520000        10.897000000 H       629 pe       0.041986755
     3800 C1           21.384900000        46.483440000         8.755160000 C.3     630 pe      -0.084813245
     3801 C2           20.142100000        47.355590000         8.542890000 C.3     630 pe      -0.084813245
     3802 H4           21.054000000        45.450691600         8.864270000 H       630 pe       0.041986755
     3803 H5           22.004800000        46.555510000         7.865430000 H       630 pe       0.041986755
     3804 H6           19.563800000        47.375700000         9.463150000 H       630 pe       0.041986755
     3805 H8           19.541000000        46.868600000         7.779140000 H       630 pe       0.041986755
     3806 C1           20.488000000        48.803180000         8.135550000 C.3     631 pe      -0.084813245
     3807 C2           19.786600000        49.306220000         6.865180000 C.3     631 pe      -0.084813245
     3808 H4           21.561500000        48.948240000         8.065000000 H       631 pe       0.041986755
     3809 H5           20.145800000        49.453800000         8.922250000 H       631 pe       0.041986755
     3810 H6           19.277300000        50.232940000         7.128040000 H       631 pe       0.041986755
     3811 H8           19.028400000        48.612350000         6.518050000 H       631 pe       0.041986755
     3812 C1           20.765400000        49.645150000         5.732040000 C.3     632 pe      -0.084813245
     3813 C2           21.705300000        48.511780000         5.299110000 C.3     632 pe      -0.084813245
     3814 H4           21.381800000        50.485100000         6.051540000 H       632 pe       0.041986755
     3815 H5           20.187000000        49.962280000         4.864460000 H       632 pe       0.041986755
     3816 H6           22.372900000        48.236160000         6.107600000 H       632 pe       0.041986755
     3817 H8           22.317000000        48.920610000         4.509250000 H       632 pe       0.041986755
     3818 C1           20.966300000        47.261080000         4.803370000 C.3     633 pe      -0.084813245
     3819 C2           21.554500000        46.683210000         3.507610000 C.3     633 pe      -0.084813245
     3820 H4           19.921000000        47.499710000         4.634120000 H       633 pe       0.041986755
     3821 H5           21.026100000        46.493400000         5.573820000 H       633 pe       0.041986755
     3822 H6           21.114500000        45.701176000         3.342320000 H       633 pe       0.041986755
     3823 H8           22.627500000        46.547320000         3.599420000 H       633 pe       0.041986755
     3824 C1           21.219900000        47.555830000         2.290580000 C.3     634 pe      -0.084813245
     3825 C2           22.480800000        48.177530000         1.676200000 C.3     634 pe      -0.084813245
     3826 H4           20.520600000        48.345030000         2.563360000 H       634 pe       0.041986755
     3827 H5           20.748200000        46.911260000         1.555870000 H       634 pe       0.041986755
     3828 H6           23.177200000        47.384480000         1.420750000 H       634 pe       0.041986755
     3829 H8           22.952400000        48.849400000         2.385650000 H       634 pe       0.041986755
     3830 C1           22.122100000        48.988940000         0.428239000 C.3     635 pe      -0.084813245
     3831 C2           23.360100000        49.679420000        -0.162800000 C.3     635 pe      -0.084813245
     3832 H4           21.403100000        49.759040000         0.708410000 H       635 pe       0.041986755
     3833 H5           21.667000000        48.340360000        -0.310800000 H       635 pe       0.041986755
     3834 H6           24.207200000        49.598090000         0.515839000 H       635 pe       0.041986755
     3835 H8           23.114600000        50.736870000        -0.259800000 H       635 pe       0.041986755
     3836 C1           23.754600000        49.172620000        -1.562900000 C.3     636 pe      -0.084813245
     3837 C2           24.599300000        47.882960000        -1.584500000 C.3     636 pe      -0.084813245
     3838 H4           24.372600000        49.953150000        -2.005600000 H       636 pe       0.041986755
     3839 H5           22.869600000        49.061530000        -2.189100000 H       636 pe       0.041986755
     3840 H6           25.275800000        47.868090000        -0.732300000 H       636 pe       0.041986755
     3841 H8           25.193600000        47.909790000        -2.497700000 H       636 pe       0.041986755
     3842 C1           23.760400000        46.595440000        -1.600200000 C.3     637 pe      -0.084813245
     3843 C2           24.638200000        45.354200000        -1.847100000 C.3     637 pe      -0.084813245
     3844 H4           23.026400000        46.662020000        -2.402600000 H       637 pe       0.041986755
     3845 H5           23.242400000        46.493460000        -0.657700000 H       637 pe       0.041986755
     3846 H6           25.684900000        45.657152000        -1.845500000 H       637 pe       0.041986755
     3847 H8           24.411700000        44.959100000        -2.836800000 H       637 pe       0.041986755
     3848 C1           24.498100000        44.222500000        -0.805800000 C.3     638 pe      -0.084813245
     3849 C2           23.083800000        43.738000000        -0.420300000 C.3     638 pe      -0.084813245
     3850 H4           24.984500000        44.554200000         0.112093000 H       638 pe       0.041986755
     3851 H5           25.052500000        43.363700000        -1.183200000 H       638 pe       0.041986755
     3852 H6           22.693600000        44.414900000         0.335213000 H       638 pe       0.041986755
     3853 H8           23.199300000        42.766900000         0.061817300 H       638 pe       0.041986755
     3854 C1           22.084000000        43.559500000        -1.587300000 C.3     639 pe      -0.084813245
     3855 C2           20.630100000        43.460300000        -1.090900000 C.3     639 pe      -0.084813245
     3856 H4           22.337600000        42.636900000        -2.109100000 H       639 pe       0.041986755
     3857 H5           22.133800000        44.379600000        -2.296900000 H       639 pe       0.041986755
     3858 H6           20.603600000        42.791500000        -0.230300000 H       639 pe       0.041986755
     3859 H8           20.003600000        43.040200000        -1.877400000 H       639 pe       0.041986755
     3860 C1           20.080900000        44.836000000        -0.671800000 C.3     640 pe      -0.084813245
     3861 C2           19.173600000        45.533382000        -1.695700000 C.3     640 pe      -0.084813245
     3862 H4           20.916700000        45.493137000        -0.460700000 H       640 pe       0.041986755
     3863 H5           19.503200000        44.714200000         0.237422000 H       640 pe       0.041986755
     3864 H6           18.142900000        45.217200000        -1.539300000 H       640 pe       0.041986755
     3865 H8           19.486600000        45.294600000        -2.712000000 H       640 pe       0.041986755
     3866 C1           19.329100000        47.045050000        -1.464500000 C.3     641 pe      -0.084813245
     3867 C2           18.169000000        47.934800000        -1.936600000 C.3     641 pe      -0.084813245
     3868 H4           20.216900000        47.358610000        -2.012900000 H       641 pe       0.041986755
     3869 H5           19.501100000        47.237350000        -0.412500000 H       641 pe       0.041986755
     3870 H6           17.909500000        47.658850000        -2.958200000 H       641 pe       0.041986755
     3871 H8           18.540400000        48.959440000        -1.946400000 H       641 pe       0.041986755
     3872 C1           16.885300000        47.925020000        -1.082800000 C.3     642 pe      -0.084813245
     3873 C2           17.101400000        47.956700000         0.443747000 C.3     642 pe      -0.084813245
     3874 H4           16.306200000        47.044160000        -1.344500000 H       642 pe       0.041986755
     3875 H5           16.319300000        48.810550000        -1.369500000 H       642 pe       0.041986755
     3876 H6           17.925700000        48.633210000         0.670098000 H       642 pe       0.041986755
     3877 H8           17.370300000        46.958050000         0.783780000 H       642 pe       0.041986755
     3878 C1           15.889900000        48.459040000         1.257150000 C.3     643 pe      -0.084813245
     3879 C2           14.499900000        47.947980000         0.830971000 C.3     643 pe      -0.084813245
     3880 H4           15.873600000        49.546170000         1.181550000 H       643 pe       0.041986755
     3881 H5           16.050900000        48.200790000         2.304360000 H       643 pe       0.041986755
     3882 H6           14.314000000        48.230330000        -0.201300000 H       643 pe       0.041986755
     3883 H8           13.763700000        48.467060000         1.444650000 H       643 pe       0.041986755
     3884 C1           14.298800000        46.439260000         1.069350000 C.3     644 pe      -0.084813245
     3885 C2           13.605300000        45.699963000        -0.096400000 C.3     644 pe      -0.084813245
     3886 H4           13.671000000        46.332794000         1.953080000 H       644 pe       0.041986755
     3887 H5           15.252800000        45.975719000         1.290470000 H       644 pe       0.041986755
     3888 H6           13.361000000        46.385180000        -0.905400000 H       644 pe       0.041986755
     3889 H8           12.673000000        45.271500000         0.270154000 H       644 pe       0.041986755
     3890 C1           14.474400000        44.575700000        -0.684300000 C.3     645 pe      -0.084813245
     3891 C2           14.385000000        43.296700000         0.158593000 C.3     645 pe      -0.084813245
     3892 H4           15.507000000        44.911000000        -0.750500000 H       645 pe       0.041986755
     3893 H5           14.118100000        44.349200000        -1.688900000 H       645 pe       0.041986755
     3894 H6           13.393000000        42.860400000         0.041830900 H       645 pe       0.041986755
     3895 H8           14.523700000        43.548700000         1.202350000 H       645 pe       0.041986755
     3896 C1           15.430000000        42.262800000        -0.297300000 C.3     646 pe      -0.084813245
     3897 C2           16.164600000        41.577400000         0.868199000 C.3     646 pe      -0.084813245
     3898 H4           16.159500000        42.715500000        -0.966800000 H       646 pe       0.041986755
     3899 H5           14.898300000        41.491100000        -0.853700000 H       646 pe       0.041986755
     3900 H6           16.463200000        40.588900000         0.519747000 H       646 pe       0.041986755
     3901 H8           15.489100000        41.440300000         1.712590000 H       646 pe       0.041986755
     3902 C1           17.452400000        42.299100000         1.313230000 C.3     647 pe      -0.084813245
     3903 C2           17.181400000        43.612300000         2.060290000 C.3     647 pe      -0.084813245
     3904 H4           18.078800000        42.500000000         0.446305000 H       647 pe       0.041986755
     3905 H5           17.996600000        41.625700000         1.973050000 H       647 pe       0.041986755
     3906 H6           16.296300000        43.485400000         2.672310000 H       647 pe       0.041986755
     3907 H8           17.029900000        44.409900000         1.337850000 H       647 pe       0.041986755
     3908 C1           18.345400000        43.980500000         2.983560000 C.3     648 pe      -0.084813245
     3909 C2           18.158300000        45.309100000         3.730180000 C.3     648 pe      -0.084813245
     3910 H4           19.264500000        44.039400000         2.407750000 H       648 pe       0.041986755
     3911 H5           18.477200000        43.199100000         3.714380000 H       648 pe       0.041986755
     3912 H6           18.316000000        46.129141000         3.031280000 H       648 pe       0.041986755
     3913 H8           18.933900000        45.331500000         4.489830000 H       648 pe       0.041986755
     3914 C1           16.817400000        45.515773000         4.452470000 C.3     649 pe      -0.084813245
     3915 C2           16.944800000        46.740950000         5.370280000 C.3     649 pe      -0.084813245
     3916 H4           16.578900000        44.639100000         5.052500000 H       649 pe       0.041986755
     3917 H5           16.027100000        45.693294000         3.725280000 H       649 pe       0.041986755
     3918 H6           17.343000000        47.575680000         4.794500000 H       649 pe       0.041986755
     3919 H8           17.627900000        46.502270000         6.183990000 H       649 pe       0.041986755
     3920 C1           15.597000000        47.157800000         5.968910000 C.3     650 pe      -0.084813245
     3921 C2           15.761500000        48.402920000         6.848130000 C.3     650 pe      -0.084813245
     3922 H4           15.206700000        46.346327000         6.581610000 H       650 pe       0.041986755
     3923 H5           14.895200000        47.384810000         5.166420000 H       650 pe       0.041986755
     3924 H6           16.402900000        48.172940000         7.699020000 H       650 pe       0.041986755
     3925 H7           16.202600000        49.213920000         6.268580000 H       650 pe       0.041986755
     3926 H8           14.782800000        48.716160000         7.211940000 H       650 pe       0.041986755
     3927 C1           41.388400000        39.552400000        12.112100000 C.3     651 pe      -0.084813245
     3928 C2           42.602200000        40.378700000        11.672100000 C.3     651 pe      -0.084813245
     3929 H3           41.548400000        38.502100000        11.865600000 H       651 pe       0.041986755
     3930 H4           41.256600000        39.648300000        13.189200000 H       651 pe       0.041986755
     3931 H5           40.492200000        39.910800000        11.605400000 H       651 pe       0.041986755
     3932 H6           43.495900000        39.946400000        12.117400000 H       651 pe       0.041986755
     3933 H8           42.485800000        41.405700000        12.017900000 H       651 pe       0.041986755
     3934 C1           42.685600000        40.364300000        10.140900000 C.3     652 pe      -0.084813245
     3935 C2           44.021700000        40.863000000         9.578120000 C.3     652 pe      -0.084813245
     3936 H4           41.906700000        41.023700000         9.760780000 H       652 pe       0.041986755
     3937 H5           42.500100000        39.354900000         9.793010000 H       652 pe       0.041986755
     3938 H6           44.331200000        41.733700000        10.155300000 H       652 pe       0.041986755
     3939 H8           43.874300000        41.175900000         8.545610000 H       652 pe       0.041986755
     3940 C1           45.152100000        39.823200000         9.633170000 C.3     653 pe      -0.084813245
     3941 C2           45.072300000        38.640600000         8.651840000 C.3     653 pe      -0.084813245
     3942 H4           45.231900000        39.423400000        10.642000000 H       653 pe       0.041986755
     3943 H5           46.064084000        40.359500000         9.411560000 H       653 pe       0.041986755
     3944 H6           44.103700000        38.150200000         8.707430000 H       653 pe       0.041986755
     3945 H8           45.825975000        37.915300000         8.957240000 H       653 pe       0.041986755
     3946 C1           45.395829200        39.036900000         7.203960000 C.3     654 pe      -0.084813245
     3947 C2           44.153400000        38.868600000         6.320820000 C.3     654 pe      -0.084813245
     3948 H4           46.179831000        38.371900000         6.842180000 H       654 pe       0.041986755
     3949 H5           45.759954000        40.061200000         7.156490000 H       654 pe       0.041986755
     3950 H6           43.347000000        39.501300000         6.689020000 H       654 pe       0.041986755
     3951 H8           43.841900000        37.827200000         6.369330000 H       654 pe       0.041986755
     3952 C1           44.447700000        39.196300000         4.851540000 C.3     655 pe      -0.084813245
     3953 C2           44.341300000        40.700300000         4.562210000 C.3     655 pe      -0.084813245
     3954 H4           43.752900000        38.643000000         4.228270000 H       655 pe       0.041986755
     3955 H5           45.457065000        38.867400000         4.607100000 H       655 pe       0.041986755
     3956 H6           45.006100000        40.940200000         3.735740000 H       655 pe       0.041986755
     3957 H8           44.675300000        41.233800000         5.443200000 H       655 pe       0.041986755
     3958 C1           42.924800000        41.203700000         4.247290000 C.3     656 pe      -0.084813245
     3959 C2           42.659700000        41.378300000         2.744230000 C.3     656 pe      -0.084813245
     3960 H4           42.817300000        42.185400000         4.708960000 H       656 pe       0.041986755
     3961 H5           42.179200000        40.544500000         4.684160000 H       656 pe       0.041986755
     3962 H6           43.413000000        42.034700000         2.314950000 H       656 pe       0.041986755
     3963 H8           41.691800000        41.863200000         2.647760000 H       656 pe       0.041986755
     3964 C1           42.674400000        40.037500000         1.991590000 C.3     657 pe      -0.084813245
     3965 C2           42.008600000        40.103900000         0.606890000 C.3     657 pe      -0.084813245
     3966 H4           42.190300000        39.279700000         2.596870000 H       657 pe       0.041986755
     3967 H5           43.712300000        39.743200000         1.840030000 H       657 pe       0.041986755
     3968 H6           42.318700000        39.232800000         0.030222600 H       657 pe       0.041986755
     3969 H8           42.363800000        40.998900000         0.095872600 H       657 pe       0.041986755
     3970 C1           40.472000000        40.140500000         0.642598000 C.3     658 pe      -0.084813245
     3971 C2           39.823100000        38.804600000         1.048030000 C.3     658 pe      -0.084813245
     3972 H4           40.128300000        40.410900000        -0.353200000 H       658 pe       0.041986755
     3973 H5           40.143300000        40.915600000         1.322470000 H       658 pe       0.041986755
     3974 H6           40.207500000        38.475300000         2.003490000 H       658 pe       0.041986755
     3975 H8           40.034200000        38.044000000         0.297789000 H       658 pe       0.041986755
     3976 C1           38.314500000        39.022000000         1.208620000 C.3     659 pe      -0.084813245
     3977 C2           37.514000000        37.732800000         1.429970000 C.3     659 pe      -0.084813245
     3978 H4           37.930500000        39.561900000         0.350369000 H       659 pe       0.041986755
     3979 H5           38.175000000        39.636300000         2.082060000 H       659 pe       0.041986755
     3980 H6           37.503300000        37.503400000         2.494940000 H       659 pe       0.041986755
     3981 H8           37.972700000        36.911700000         0.885808000 H       659 pe       0.041986755
     3982 C1           36.078100000        37.925200000         0.923247000 C.3     660 pe      -0.084813245
     3983 C2           35.099500000        36.962100000         1.601840000 C.3     660 pe      -0.084813245
     3984 H4           36.069100000        37.747000000        -0.148500000 H       660 pe       0.041986755
     3985 H5           35.751000000        38.943200000         1.127180000 H       660 pe       0.041986755
     3986 H6           34.856600000        37.352300000         2.584690000 H       660 pe       0.041986755
     3987 H8           35.558300000        35.987400000         1.717180000 H       660 pe       0.041986755
     3988 C1           33.817600000        36.795300000         0.773539000 C.3     661 pe      -0.084813245
     3989 C2           32.571000000        36.667100000         1.654770000 C.3     661 pe      -0.084813245
     3990 H4           33.902500000        35.919300000         0.133516000 H       661 pe       0.041986755
     3991 H5           33.677500000        37.670900000         0.143440000 H       661 pe       0.041986755
     3992 H6           31.709600000        36.605500000         0.994328000 H       661 pe       0.041986755
     3993 H8           32.481300000        37.576500000         2.247800000 H       661 pe       0.041986755
     3994 C1           32.569500000        35.456000000         2.605180000 C.3     662 pe      -0.084813245
     3995 C2           32.083000000        34.165100000         1.929380000 C.3     662 pe      -0.084813245
     3996 H4           31.885300000        35.685800000         3.418520000 H       662 pe       0.041986755
     3997 H5           33.554800000        35.294400000         3.035130000 H       662 pe       0.041986755
     3998 H6           32.686500000        33.931300000         1.052710000 H       662 pe       0.041986755
     3999 H8           31.049500000        34.295800000         1.613060000 H       662 pe       0.041986755
     4000 C1           32.136500000        33.010300000         2.941490000 C.3     663 pe      -0.084813245
     4001 C2           33.487300000        32.281500000         2.893840000 C.3     663 pe      -0.084813245
     4002 H4           31.354500000        32.293300000         2.693400000 H       663 pe       0.041986755
     4003 H5           31.946200000        33.394300000         3.942600000 H       663 pe       0.041986755
     4004 H6           34.254900000        32.924300000         2.466670000 H       663 pe       0.041986755
     4005 H8           33.368700000        31.417100000         2.244020000 H       663 pe       0.041986755
     4006 C1           33.938600000        31.778900000         4.275670000 C.3     664 pe      -0.084813245
     4007 C2           34.746000000        32.843800000         5.039240000 C.3     664 pe      -0.084813245
     4008 H4           34.570900000        30.909500000         4.111950000 H       664 pe       0.041986755
     4009 H5           33.075300000        31.469100000         4.864420000 H       664 pe       0.041986755
     4010 H6           34.077800000        33.631400000         5.387440000 H       664 pe       0.041986755
     4011 H8           35.483500000        33.274100000         4.362580000 H       664 pe       0.041986755
     4012 C1           35.483600000        32.226800000         6.241660000 C.3     665 pe      -0.084813245
     4013 C2           36.385200000        33.278100000         6.908800000 C.3     665 pe      -0.084813245
     4014 H4           36.094300000        31.403100000         5.887580000 H       665 pe       0.041986755
     4015 H5           34.762500000        31.850600000         6.966910000 H       665 pe       0.041986755
     4016 H6           35.772500000        33.881500000         7.573950000 H       665 pe       0.041986755
     4017 H8           36.790800000        33.917600000         6.128290000 H       665 pe       0.041986755
     4018 C1           37.539000000        32.670900000         7.732830000 C.3     666 pe      -0.084813245
     4019 C2           38.740600000        33.633400000         7.788140000 C.3     666 pe      -0.084813245
     4020 H4           37.857100000        31.729700000         7.299200000 H       666 pe       0.041986755
     4021 H5           37.187500000        32.477800000         8.746050000 H       666 pe       0.041986755
     4022 H6           38.524400000        34.410900000         8.517740000 H       666 pe       0.041986755
     4023 H8           38.896400000        34.084500000         6.811550000 H       666 pe       0.041986755
     4024 C1           40.043600000        32.928800000         8.191060000 C.3     667 pe      -0.084813245
     4025 C2           41.233700000        33.910500000         8.173720000 C.3     667 pe      -0.084813245
     4026 H4           40.234000000        32.100400000         7.513980000 H       667 pe       0.041986755
     4027 H5           39.930200000        32.535600000         9.200800000 H       667 pe       0.041986755
     4028 H6           41.695400000        33.878800000         9.160010000 H       667 pe       0.041986755
     4029 H8           40.886000000        34.925200000         7.998750000 H       667 pe       0.041986755
     4030 C1           42.322800000        33.554600000         7.143620000 C.3     668 pe      -0.084813245
     4031 C2           41.950700000        33.892800000         5.693410000 C.3     668 pe      -0.084813245
     4032 H4           42.520500000        32.489700000         7.201660000 H       668 pe       0.041986755
     4033 H5           43.239600000        34.084000000         7.402520000 H       668 pe       0.041986755
     4034 H6           40.886400000        33.744400000         5.556400000 H       668 pe       0.041986755
     4035 H8           42.491900000        33.213400000         5.036420000 H       668 pe       0.041986755
     4036 C1           42.354900000        35.324500000         5.319480000 C.3     669 pe      -0.084813245
     4037 C2           41.677200000        35.820000000         4.025920000 C.3     669 pe      -0.084813245
     4038 H4           43.431600000        35.333300000         5.149900000 H       669 pe       0.041986755
     4039 H5           42.143100000        35.993100000         6.148020000 H       669 pe       0.041986755
     4040 H6           41.841200000        35.076400000         3.246540000 H       669 pe       0.041986755
     4041 H8           42.169000000        36.738200000         3.709390000 H       669 pe       0.041986755
     4042 C1           40.160300000        36.084500000         4.111530000 C.3     670 pe      -0.084813245
     4043 C2           39.674600000        36.939600000         5.289290000 C.3     670 pe      -0.084813245
     4044 H4           39.641100000        35.136200000         4.180030000 H       670 pe       0.041986755
     4045 H5           39.844300000        36.552200000         3.185180000 H       670 pe       0.041986755
     4046 H6           39.816600000        36.361600000         6.190720000 H       670 pe       0.041986755
     4047 H8           38.608500000        37.107500000         5.149310000 H       670 pe       0.041986755
     4048 C1           40.371600000        38.301600000         5.416190000 C.3     671 pe      -0.084813245
     4049 C2           39.845200000        39.149600000         6.586690000 C.3     671 pe      -0.084813245
     4050 H4           40.190300000        38.855400000         4.496960000 H       671 pe       0.041986755
     4051 H5           41.441500000        38.178200000         5.531470000 H       671 pe       0.041986755
     4052 H6           38.769600000        39.177300000         6.556800000 H       671 pe       0.041986755
     4053 H8           40.199500000        40.165500000         6.414010000 H       671 pe       0.041986755
     4054 C1           40.333000000        38.756600000         7.994420000 C.3     672 pe      -0.084813245
     4055 C2           39.490900000        37.765300000         8.821620000 C.3     672 pe      -0.084813245
     4056 H4           40.370500000        39.679000000         8.566750000 H       672 pe       0.041986755
     4057 H5           41.341600000        38.356000000         7.913410000 H       672 pe       0.041986755
     4058 H6           40.057800000        37.537100000         9.723640000 H       672 pe       0.041986755
     4059 H8           39.365600000        36.835700000         8.288540000 H       672 pe       0.041986755
     4060 C1           38.129000000        38.316500000         9.278850000 C.3     673 pe      -0.084813245
     4061 C2           36.991100000        37.297400000         9.091600000 C.3     673 pe      -0.084813245
     4062 H4           37.882800000        39.238800000         8.755480000 H       673 pe       0.041986755
     4063 H5           38.203200000        38.546300000        10.341600000 H       673 pe       0.041986755
     4064 H6           36.090500000        37.717000000         9.537540000 H       673 pe       0.041986755
     4065 H8           37.234300000        36.372900000         9.614970000 H       673 pe       0.041986755
     4066 C1           36.748000000        36.993700000         7.603390000 C.3     674 pe      -0.084813245
     4067 C2           35.286300000        36.714500000         7.264190000 C.3     674 pe      -0.084813245
     4068 H4           37.329500000        36.126300000         7.312400000 H       674 pe       0.041986755
     4069 H5           37.069800000        37.831500000         7.009690000 H       674 pe       0.041986755
     4070 H6           34.844800000        36.113800000         8.058930000 H       674 pe       0.041986755
     4071 H8           35.236100000        36.155300000         6.330640000 H       674 pe       0.041986755
     4072 C1           34.487600000        38.012500000         7.124770000 C.3     675 pe      -0.084813245
     4073 C2           34.295700000        38.496800000         5.675990000 C.3     675 pe      -0.084813245
     4074 H4           34.919700000        38.807600000         7.729840000 H       675 pe       0.041986755
     4075 H5           33.501900000        37.775000000         7.519710000 H       675 pe       0.041986755
     4076 H6           33.563400000        39.297800000         5.670960000 H       675 pe       0.041986755
     4077 H8           33.879000000        37.675800000         5.092540000 H       675 pe       0.041986755
     4078 C1           35.528400000        39.028000000         4.931320000 C.3     676 pe      -0.084813245
     4079 C2           36.165400000        40.325600000         5.483990000 C.3     676 pe      -0.084813245
     4080 H4           35.145200000        39.238900000         3.935940000 H       676 pe       0.041986755
     4081 H5           36.280900000        38.247400000         4.842950000 H       676 pe       0.041986755
     4082 H6           36.660600000        40.147700000         6.434020000 H       676 pe       0.041986755
     4083 H8           35.393800000        41.065700000         5.640730000 H       676 pe       0.041986755
     4084 C1           37.183200000        40.814200000         4.434200000 C.3     677 pe      -0.084813245
     4085 C2           37.618700000        42.294700000         4.433910000 C.3     677 pe      -0.084813245
     4086 H4           36.727500000        40.633500000         3.472720000 H       677 pe       0.041986755
     4087 H5           38.073800000        40.196100000         4.492830000 H       677 pe       0.041986755
     4088 H6           38.552400000        42.406500000         4.984800000 H       677 pe       0.041986755
     4089 H8           36.848200000        42.925600000         4.873420000 H       677 pe       0.041986755
     4090 C1           37.818300000        42.663400000         2.948530000 C.3     678 pe      -0.084813245
     4091 C2           38.437100000        44.020100000         2.591450000 C.3     678 pe      -0.084813245
     4092 H4           36.844700000        42.646000000         2.487740000 H       678 pe       0.041986755
     4093 H5           38.442900000        41.907900000         2.489720000 H       678 pe       0.041986755
     4094 H6           39.521900000        43.917000000         2.565180000 H       678 pe       0.041986755
     4095 H8           38.167500000        44.749900000         3.354630000 H       678 pe       0.041986755
     4096 C1           37.933800000        44.537400000         1.217500000 C.3     679 pe      -0.084813245
     4097 C2           37.960200000        43.523700000         0.045429000 C.3     679 pe      -0.084813245
     4098 H4           38.549600000        45.391820900         0.938064000 H       679 pe       0.041986755
     4099 H5           36.912500000        44.891600000         1.346790000 H       679 pe       0.041986755
     4100 H6           37.345800000        42.657500000         0.278258000 H       679 pe       0.041986755
     4101 H8           38.983600000        43.190700000        -0.125400000 H       679 pe       0.041986755
     4102 C1           37.405000000        44.144600000        -1.253900000 C.3     680 pe      -0.084813245
     4103 C2           36.940100000        43.049100000        -2.232900000 C.3     680 pe      -0.084813245
     4104 H4           38.181100000        44.748500000        -1.723300000 H       680 pe       0.041986755
     4105 H5           36.557300000        44.780500000        -1.015000000 H       680 pe       0.041986755
     4106 H6           36.191000000        42.435500000        -1.738400000 H       680 pe       0.041986755
     4107 H8           37.805100000        42.437900000        -2.476400000 H       680 pe       0.041986755
     4108 C1           36.350200000        43.617800000        -3.541900000 C.3     681 pe      -0.084813245
     4109 C2           35.759600000        42.542700000        -4.482800000 C.3     681 pe      -0.084813245
     4110 H4           37.152800000        44.123300000        -4.077600000 H       681 pe       0.041986755
     4111 H5           35.579400000        44.350200000        -3.317100000 H       681 pe       0.041986755
     4112 H6           36.449200000        41.710200000        -4.540100000 H       681 pe       0.041986755
     4113 H8           35.658200000        42.977500000        -5.476900000 H       681 pe       0.041986755
     4114 C1           34.372900000        42.043200000        -4.042400000 C.3     682 pe      -0.084813245
     4115 C2           33.758600000        40.979600000        -4.977200000 C.3     682 pe      -0.084813245
     4116 H4           33.706800000        42.896600000        -4.063800000 H       682 pe       0.041986755
     4117 H5           34.429400000        41.667700000        -3.027200000 H       682 pe       0.041986755
     4118 H6           34.519300000        40.487300000        -5.577000000 H       682 pe       0.041986755
     4119 H8           33.097100000        41.507100000        -5.664000000 H       682 pe       0.041986755
     4120 C1           32.895400000        39.937600000        -4.231700000 C.3     683 pe      -0.084813245
     4121 C2           33.563300000        38.583400000        -3.932500000 C.3     683 pe      -0.084813245
     4122 H4           32.033300000        39.723800000        -4.863400000 H       683 pe       0.041986755
     4123 H5           32.526400000        40.355100000        -3.299900000 H       683 pe       0.041986755
     4124 H6           33.961200000        38.154400000        -4.850000000 H       683 pe       0.041986755
     4125 H8           32.787400000        37.915100000        -3.558000000 H       683 pe       0.041986755
     4126 C1           34.651300000        38.658000000        -2.853400000 C.3     684 pe      -0.084813245
     4127 C2           36.042800000        38.709300000        -3.495200000 C.3     684 pe      -0.084813245
     4128 H4           34.590500000        37.762600000        -2.238900000 H       684 pe       0.041986755
     4129 H5           34.473100000        39.517300000        -2.214200000 H       684 pe       0.041986755
     4130 H6           36.019800000        39.320500000        -4.385500000 H       684 pe       0.041986755
     4131 H8           36.336600000        37.709000000        -3.786700000 H       684 pe       0.041986755
     4132 C1           37.100300000        39.305400000        -2.568200000 C.3     685 pe      -0.084813245
     4133 C2           38.295900000        38.368300000        -2.384200000 C.3     685 pe      -0.084813245
     4134 H4           36.666300000        39.538700000        -1.602000000 H       685 pe       0.041986755
     4135 H5           37.455300000        40.226200000        -3.011200000 H       685 pe       0.041986755
     4136 H6           37.959900000        37.388500000        -2.050000000 H       685 pe       0.041986755
     4137 H8           38.934400000        38.791600000        -1.626200000 H       685 pe       0.041986755
     4138 C1           39.114800000        38.238800000        -3.669300000 C.3     686 pe      -0.084813245
     4139 C2           40.538000000        38.792300000        -3.523600000 C.3     686 pe      -0.084813245
     4140 H4           38.610800000        38.749100000        -4.477200000 H       686 pe       0.041986755
     4141 H5           39.191100000        37.180700000        -3.916500000 H       686 pe       0.041986755
     4142 H6           41.095300000        38.459300000        -4.387700000 H       686 pe       0.041986755
     4143 H8           40.990100000        38.352000000        -2.636500000 H       686 pe       0.041986755
     4144 C1           40.684200000        40.320500000        -3.427900000 C.3     687 pe      -0.084813245
     4145 C2           41.012000000        41.022700000        -4.763000000 C.3     687 pe      -0.084813245
     4146 H4           41.533600000        40.502900000        -2.769700000 H       687 pe       0.041986755
     4147 H5           39.811300000        40.769600000        -2.961900000 H       687 pe       0.041986755
     4148 H6           41.754600000        40.463500000        -5.331400000 H       687 pe       0.041986755
     4149 H8           41.455300000        41.983200000        -4.500900000 H       687 pe       0.041986755
     4150 C1           39.785700000        41.328700000        -5.638700000 C.3     688 pe      -0.084813245
     4151 C2           39.508900000        40.259700000        -6.713400000 C.3     688 pe      -0.084813245
     4152 H4           39.971100000        42.270900000        -6.154200000 H       688 pe       0.041986755
     4153 H5           38.921000000        41.466100000        -4.994600000 H       688 pe       0.041986755
     4154 H6           39.808100000        39.278400000        -6.360400000 H       688 pe       0.041986755
     4155 H8           40.095000000        40.496000000        -7.601200000 H       688 pe       0.041986755
     4156 C1           38.013400000        40.263900000        -7.078700000 C.3     689 pe      -0.084813245
     4157 C2           37.576900000        39.078800000        -7.956700000 C.3     689 pe      -0.084813245
     4158 H4           37.799900000        41.188100000        -7.615400000 H       689 pe       0.041986755
     4159 H5           37.408400000        40.250500000        -6.177900000 H       689 pe       0.041986755
     4160 H6           38.262500000        38.971900000        -8.796800000 H       689 pe       0.041986755
     4161 H8           36.585100000        39.314300000        -8.342000000 H       689 pe       0.041986755
     4162 C1           37.497000000        37.752000000        -7.177600000 C.3     690 pe      -0.084813245
     4163 C2           36.549500000        36.761000000        -7.873200000 C.3     690 pe      -0.084813245
     4164 H4           37.116900000        37.936100000        -6.179200000 H       690 pe       0.041986755
     4165 H5           38.494800000        37.319100000        -7.108300000 H       690 pe       0.041986755
     4166 H6           36.897800000        36.620100000        -8.896500000 H       690 pe       0.041986755
     4167 H8           35.537600000        37.165600000        -7.900600000 H       690 pe       0.041986755
     4168 C1           36.529800000        35.385600000        -7.182300000 C.3     691 pe      -0.084813245
     4169 C2           35.727800000        35.339600000        -5.865200000 C.3     691 pe      -0.084813245
     4170 H4           37.556500000        35.077100000        -7.003400000 H       691 pe       0.041986755
     4171 H5           36.076500000        34.673000000        -7.871100000 H       691 pe       0.041986755
     4172 H6           34.881300000        34.666600000        -5.996900000 H       691 pe       0.041986755
     4173 H8           35.353100000        36.328400000        -5.618600000 H       691 pe       0.041986755
     4174 C1           36.610200000        34.821800000        -4.718600000 C.3     692 pe      -0.084813245
     4175 C2           35.892800000        34.750000000        -3.355000000 C.3     692 pe      -0.084813245
     4176 H4           37.470700000        35.483300000        -4.632400000 H       692 pe       0.041986755
     4177 H5           36.960300000        33.822500000        -4.970400000 H       692 pe       0.041986755
     4178 H6           35.077500000        34.034500000        -3.391700000 H       692 pe       0.041986755
     4179 H8           35.494300000        35.717100000        -3.075400000 H       692 pe       0.041986755
     4180 C1           36.927100000        34.295400000        -2.320000000 C.3     693 pe      -0.084813245
     4181 C2           36.465500000        34.303200000        -0.855000000 C.3     693 pe      -0.084813245
     4182 H4           37.785600000        34.957100000        -2.388700000 H       693 pe       0.041986755
     4183 H5           37.230300000        33.287500000        -2.588900000 H       693 pe       0.041986755
     4184 H6           35.662900000        33.583600000        -0.703400000 H       693 pe       0.041986755
     4185 H8           36.131800000        35.300300000        -0.591700000 H       693 pe       0.041986755
     4186 C1           37.700800000        33.930300000        -0.020700000 C.3     694 pe      -0.084813245
     4187 C2           37.482800000        33.578200000         1.455440000 C.3     694 pe      -0.084813245
     4188 H4           38.415100000        34.747100000        -0.068200000 H       694 pe       0.041986755
     4189 H5           38.131700000        33.055900000        -0.488000000 H       694 pe       0.041986755
     4190 H6           36.699200000        32.828100000         1.534340000 H       694 pe       0.041986755
     4191 H8           37.208200000        34.459900000         2.026960000 H       694 pe       0.041986755
     4192 C1           38.816800000        33.035500000         1.999570000 C.3     695 pe      -0.084813245
     4193 C2           38.650300000        32.332200000         3.351220000 C.3     695 pe      -0.084813245
     4194 H4           39.526600000        33.854800000         2.097660000 H       695 pe       0.041986755
     4195 H5           39.226300000        32.318200000         1.295490000 H       695 pe       0.041986755
     4196 H6           37.761500000        31.719000000         3.306190000 H       695 pe       0.041986755
     4197 H8           38.521200000        33.067700000         4.142300000 H       695 pe       0.041986755
     4198 C1           39.884900000        31.457400000         3.638690000 C.3     696 pe      -0.084813245
     4199 C2           39.709600000        30.582200000         4.893650000 C.3     696 pe      -0.084813245
     4200 H4           40.732700000        32.115700000         3.792970000 H       696 pe       0.041986755
     4201 H5           40.122100000        30.839200000         2.782810000 H       696 pe       0.041986755
     4202 H6           38.823800000        30.898000000         5.431100000 H       696 pe       0.041986755
     4203 H8           40.577800000        30.766800000         5.523910000 H       696 pe       0.041986755
     4204 C1           39.653700000        29.056700000         4.663250000 C.3     697 pe      -0.084813245
     4205 C2           38.263000000        28.413300000         4.856550000 C.3     697 pe      -0.084813245
     4206 H4           40.297100000        28.611200000         5.421350000 H       697 pe       0.041986755
     4207 H5           40.071500000        28.775500000         3.699520000 H       697 pe       0.041986755
     4208 H6           37.963700000        28.550500000         5.895570000 H       697 pe       0.041986755
     4209 H8           38.371700000        27.344000000         4.679100000 H       697 pe       0.041986755
     4210 C1           37.117600000        28.927100000         3.964970000 C.3     698 pe      -0.084813245
     4211 C2           37.486700000        28.931600000         2.479970000 C.3     698 pe      -0.084813245
     4212 H4           36.838800000        29.921500000         4.282880000 H       698 pe       0.041986755
     4213 H5           36.255200000        28.277700000         4.104150000 H       698 pe       0.041986755
     4214 H6           37.719900000        27.916000000         2.204610000 H       698 pe       0.041986755
     4215 H8           38.352100000        29.550000000         2.328240000 H       698 pe       0.041986755
     4216 C1           36.365000000        29.463400000         1.583410000 C.3     699 pe      -0.084813245
     4217 C2           36.758800000        29.818900000         0.132388000 C.3     699 pe      -0.084813245
     4218 H4           35.962000000        30.368200000         2.032910000 H       699 pe       0.041986755
     4219 H5           35.568300000        28.721200000         1.548300000 H       699 pe       0.041986755
     4220 H6           36.518200000        30.869800000        -0.008300000 H       699 pe       0.041986755
     4221 H8           36.117200000        29.241000000        -0.524300000 H       699 pe       0.041986755
     4222 C1           38.201600000        29.630700000        -0.370200000 C.3     700 pe      -0.084813245
     4223 C2           38.659800000        28.174500000        -0.348600000 C.3     700 pe      -0.084813245
     4224 H4           38.902200000        30.249900000         0.183136000 H       700 pe       0.041986755
     4225 H5           38.215600000        29.953300000        -1.409900000 H       700 pe       0.041986755
     4226 H6           39.213500000        27.958300000        -1.251700000 H       700 pe       0.041986755
     4227 H7           39.310100000        27.992200000         0.504859000 H       700 pe       0.041986755
     4228 H8           37.793700000        27.524800000        -0.303800000 H       700 pe       0.041986755
     4229 C1           13.733900000         7.765540000        27.177000000 C.3     701 pe      -0.084813245
     4230 C2           13.101200000         8.076270000        28.533600000 C.3     701 pe      -0.084813245
     4231 H3           13.039900000         8.043550000        26.383800000 H       701 pe       0.041986755
     4232 H4           14.659300000         8.324340000        27.053800000 H       701 pe       0.041986755
     4233 H5           13.946000000         6.698710000        27.120400000 H       701 pe       0.041986755
     4234 H6           12.142100000         7.582500000        28.567400000 H       701 pe       0.041986755
     4235 H8           12.941500000         9.146260000        28.626800000 H       701 pe       0.041986755
     4236 C1           13.997200000         7.548010000        29.662600000 C.3     702 pe      -0.084813245
     4237 C2           13.672400000         8.172360000        31.030000000 C.3     702 pe      -0.084813245
     4238 H4           15.020200000         7.790670000        29.407600000 H       702 pe       0.041986755
     4239 H5           13.895100000         6.464380000        29.718400000 H       702 pe       0.041986755
     4240 H6           12.618900000         8.063760000        31.223100000 H       702 pe       0.041986755
     4241 H8           13.903500000         9.228970000        31.002300000 H       702 pe       0.041986755
     4242 C1           14.447600000         7.471280000        32.160200000 C.3     703 pe      -0.084813245
     4243 C2           14.541400000         8.228350000        33.495500000 C.3     703 pe      -0.084813245
     4244 H4           15.472200000         7.328600000        31.839700000 H       703 pe       0.041986755
     4245 H5           13.996700000         6.495400000        32.338800000 H       703 pe       0.041986755
     4246 H6           15.264000000         9.032560000        33.394500000 H       703 pe       0.041986755
     4247 H8           14.919900000         7.528450000        34.240300000 H       703 pe       0.041986755
     4248 C1           13.216800000         8.808030000        34.002300000 C.3     704 pe      -0.084813245
     4249 C2           13.391800000         9.295670000        35.446000000 C.3     704 pe      -0.084813245
     4250 H4           12.461800000         8.026010000        33.995000000 H       704 pe       0.041986755
     4251 H5           12.911000000         9.636430000        33.364700000 H       704 pe       0.041986755
     4252 H6           14.335000000         9.831650000        35.543800000 H       704 pe       0.041986755
     4253 H8           13.420500000         8.422110000        36.097200000 H       704 pe       0.041986755
     4254 C1           12.229000000        10.192800000        35.899000000 C.3     705 pe      -0.084813245
     4255 C2           12.499400000        11.673800000        35.576000000 C.3     705 pe      -0.084813245
     4256 H4           12.130200000        10.079400000        36.978000000 H       705 pe       0.041986755
     4257 H5           11.306300000         9.860620000        35.424300000 H       705 pe       0.041986755
     4258 H6           12.511100000        11.823500000        34.497200000 H       705 pe       0.041986755
     4259 H8           13.472800000        11.944000000        35.983100000 H       705 pe       0.041986755
     4260 C1           11.474000000        12.617100000        36.224900000 C.3     706 pe      -0.084813245
     4261 C2           10.179000000        12.756700000        35.412700000 C.3     706 pe      -0.084813245
     4262 H4           11.929600000        13.601100000        36.334300000 H       706 pe       0.041986755
     4263 H5           11.224900000        12.248600000        37.219300000 H       706 pe       0.041986755
     4264 H6            9.375250000        12.934500000        36.122500000 H       706 pe       0.041986755
     4265 H8            9.977870000        11.836400000        34.867700000 H       706 pe       0.041986755
     4266 C1           10.260600000        13.944200000        34.438900000 C.3     707 pe      -0.084813245
     4267 C2            9.128850000        13.969900000        33.393800000 C.3     707 pe      -0.084813245
     4268 H4           11.200700000        13.876500000        33.891700000 H       707 pe       0.041986755
     4269 H5           10.258300000        14.877900000        35.001600000 H       707 pe       0.041986755
     4270 H6            9.012830000        12.984900000        32.942200000 H       707 pe       0.041986755
     4271 H8            9.451170000        14.653600000        32.608500000 H       707 pe       0.041986755
     4272 C1            7.768280000        14.493400000        33.898200000 C.3     708 pe      -0.084813245
     4273 C2            6.965160000        13.461400000        34.711000000 C.3     708 pe      -0.084813245
     4274 H4            7.197020000        14.784100000        33.019200000 H       708 pe       0.041986755
     4275 H5            7.919330000        15.383200000        34.508900000 H       708 pe       0.041986755
     4276 H6            7.144380000        13.653000000        35.767900000 H       708 pe       0.041986755
     4277 H8            7.310050000        12.456400000        34.486600000 H       708 pe       0.041986755
     4278 C1            5.443840000        13.537100000        34.487800000 C.3     709 pe      -0.084813245
     4279 C2            5.015180000        13.103100000        33.071700000 C.3     709 pe      -0.084813245
     4280 H4            5.106520000        14.558700000        34.662200000 H       709 pe       0.041986755
     4281 H5            4.978920000        12.894600000        35.232200000 H       709 pe       0.041986755
     4282 H6            5.789040000        12.489300000        32.617100000 H       709 pe       0.041986755
     4283 H8            4.916550000        14.007000000        32.471400000 H       709 pe       0.041986755
     4284 C1            3.653300000        12.376900000        33.021800000 C.3     710 pe      -0.084813245
     4285 C2            3.755530000        10.853900000        32.811000000 C.3     710 pe      -0.084813245
     4286 H4            3.116050000        12.776900000        32.162100000 H       710 pe       0.041986755
     4287 H5            3.063260000        12.591600000        33.912400000 H       710 pe       0.041986755
     4288 H6            4.558270000        10.634200000        32.111400000 H       710 pe       0.041986755
     4289 H8            2.824210000        10.515000000        32.357100000 H       710 pe       0.041986755
     4290 C1            3.932540000        10.085200000        34.133700000 C.3     711 pe      -0.084813245
     4291 C2            4.507600000         8.673450000        33.928400000 C.3     711 pe      -0.084813245
     4292 H4            2.947990000         9.983330000        34.590200000 H       711 pe       0.041986755
     4293 H5            4.571610000        10.634700000        34.818000000 H       711 pe       0.041986755
     4294 H6            4.322540000         8.345950000        32.905800000 H       711 pe       0.041986755
     4295 H8            3.978620000         7.995970000        34.598100000 H       711 pe       0.041986755
     4296 C1            6.009920000         8.571920000        34.260400000 C.3     712 pe      -0.084813245
     4297 C2            6.850100000         9.413740000        33.287800000 C.3     712 pe      -0.084813245
     4298 H4            6.288800000         7.522430000        34.192100000 H       712 pe       0.041986755
     4299 H5            6.189040000         8.909460000        35.281000000 H       712 pe       0.041986755
     4300 H6            6.676210000        10.458500000        33.508700000 H       712 pe       0.041986755
     4301 H8            6.514940000         9.229830000        32.277500000 H       712 pe       0.041986755
     4302 C1            8.367790000         9.205470000        33.343000000 C.3     713 pe      -0.084813245
     4303 C2            8.804280000         7.753010000        33.092800000 C.3     713 pe      -0.084813245
     4304 H4            8.739070000         9.522890000        34.316800000 H       713 pe       0.041986755
     4305 H5            8.791550000         9.856600000        32.578400000 H       713 pe       0.041986755
     4306 H6            8.029800000         7.200840000        32.571600000 H       713 pe       0.041986755
     4307 H8            8.970920000         7.281380000        34.060900000 H       713 pe       0.041986755
     4308 C1           10.115100000         7.689980000        32.297900000 C.3     714 pe      -0.084813245
     4309 C2            9.906760000         7.518950000        30.783200000 C.3     714 pe      -0.084813245
     4310 H4           10.703500000         6.854690000        32.675500000 H       714 pe       0.041986755
     4311 H5           10.674500000         8.606810000        32.470200000 H       714 pe       0.041986755
     4312 H6           10.453900000         8.300190000        30.258600000 H       714 pe       0.041986755
     4313 H8            8.864130000         7.608400000        30.528600000 H       714 pe       0.041986755
     4314 C1           10.392600000         6.148620000        30.306700000 C.3     715 pe      -0.084813245
     4315 C2            9.872300000         5.844400000        28.894600000 C.3     715 pe      -0.084813245
     4316 H4           10.018700000         5.391640000        30.974600000 H       715 pe       0.041986755
     4317 H5           11.477700000         6.124970000        30.335600000 H       715 pe       0.041986755
     4318 H6           10.032700000         6.711170000        28.256300000 H       715 pe       0.041986755
     4319 H8            8.804810000         5.646840000        28.919200000 H       715 pe       0.041986755
     4320 C1           10.611800000         4.653110000        28.271800000 C.3     716 pe      -0.084813245
     4321 C2            9.797380000         3.346800000        28.181600000 C.3     716 pe      -0.084813245
     4322 H4           11.556300000         4.467360000        28.779200000 H       716 pe       0.041986755
     4323 H5           10.837500000         4.965110000        27.256500000 H       716 pe       0.041986755
     4324 H6           10.406400000         2.592520000        27.694200000 H       716 pe       0.041986755
     4325 H8            8.929300000         3.534390000        27.552200000 H       716 pe       0.041986755
     4326 C1            9.286310000         2.753450000        29.502800000 C.3     717 pe      -0.084813245
     4327 C2           10.372200000         2.321990000        30.499600000 C.3     717 pe      -0.084813245
     4328 H4            8.677860000         1.882230000        29.261400000 H       717 pe       0.041986755
     4329 H5            8.652980000         3.486940000        29.965000000 H       717 pe       0.041986755
     4330 H6           11.036200000         3.152110000        30.730600000 H       717 pe       0.041986755
     4331 H8           10.962200000         1.527410000        30.042200000 H       717 pe       0.041986755
     4332 C1            9.764380000         1.786830000        31.812900000 C.3     718 pe      -0.084813245
     4333 C2            9.026170000         2.850740000        32.658800000 C.3     718 pe      -0.084813245
     4334 H4           10.596800000         1.421280000        32.413300000 H       718 pe       0.041986755
     4335 H5            9.113360000         0.940018000        31.599900000 H       718 pe       0.041986755
     4336 H6            9.333090000         3.839430000        32.352800000 H       718 pe       0.041986755
     4337 H8            9.343270000         2.722950000        33.692700000 H       718 pe       0.041986755
     4338 C1            7.486220000         2.746880000        32.632800000 C.3     719 pe      -0.084813245
     4339 C2            6.760690000         4.114870000        32.670100000 C.3     719 pe      -0.084813245
     4340 H4            7.191700000         2.191830000        33.523400000 H       719 pe       0.041986755
     4341 H5            7.152630000         2.181970000        31.764500000 H       719 pe       0.041986755
     4342 H6            7.279780000         4.785520000        33.355800000 H       719 pe       0.041986755
     4343 H8            5.751490000         3.951130000        33.046600000 H       719 pe       0.041986755
     4344 C1            6.666920000         4.764710000        31.274100000 C.3     720 pe      -0.084813245
     4345 C2            5.588440000         5.847850000        31.110300000 C.3     720 pe      -0.084813245
     4346 H4            6.448870000         3.991590000        30.540000000 H       720 pe       0.041986755
     4347 H5            7.624570000         5.224620000        31.058500000 H       720 pe       0.041986755
     4348 H6            5.735950000         6.627580000        31.851600000 H       720 pe       0.041986755
     4349 H8            4.608620000         5.397020000        31.265000000 H       720 pe       0.041986755
     4350 C1            5.640460000         6.436960000        29.678700000 C.3     721 pe      -0.084813245
     4351 C2            5.989500000         7.940400000        29.651500000 C.3     721 pe      -0.084813245
     4352 H4            4.663770000         6.300900000        29.212100000 H       721 pe       0.041986755
     4353 H5            6.374140000         5.889110000        29.089100000 H       721 pe       0.041986755
     4354 H6            6.746660000         8.132400000        30.392400000 H       721 pe       0.041986755
     4355 H8            5.095000000         8.514690000        29.897500000 H       721 pe       0.041986755
     4356 C1            6.553000000         8.409810000        28.294700000 C.3     722 pe      -0.084813245
     4357 C2            6.978650000         9.899800000        28.289000000 C.3     722 pe      -0.084813245
     4358 H4            5.777940000         8.269340000        27.540200000 H       722 pe       0.041986755
     4359 H5            7.409240000         7.791400000        28.027000000 H       722 pe       0.041986755
     4360 H6            6.294570000        10.477300000        28.912000000 H       722 pe       0.041986755
     4361 H8            6.884770000        10.246400000        27.260400000 H       722 pe       0.041986755
     4362 C1            8.437710000        10.133800000        28.752200000 C.3     723 pe      -0.084813245
     4363 C2            8.919600000        11.594200000        28.579600000 C.3     723 pe      -0.084813245
     4364 H4            9.080920000         9.472730000        28.171000000 H       723 pe       0.041986755
     4365 H5            8.513990000         9.887250000        29.807100000 H       723 pe       0.041986755
     4366 H6            8.441960000        12.205200000        29.345600000 H       723 pe       0.041986755
     4367 H8            8.593240000        11.951500000        27.602900000 H       723 pe       0.041986755
     4368 C1           10.464800000        11.750200000        28.658000000 C.3     724 pe      -0.084813245
     4369 C2           10.946400000        12.568800000        29.881600000 C.3     724 pe      -0.084813245
     4370 H4           10.789000000        12.261600000        27.752300000 H       724 pe       0.041986755
     4371 H5           10.920200000        10.760800000        28.685600000 H       724 pe       0.041986755
     4372 H6           10.565400000        12.069800000        30.771600000 H       724 pe       0.041986755
     4373 H8           10.509300000        13.565900000        29.827000000 H       724 pe       0.041986755
     4374 C1           12.488400000        12.686200000        30.049000000 C.3     725 pe      -0.084813245
     4375 C2           13.080100000        13.911300000        29.306900000 C.3     725 pe      -0.084813245
     4376 H4           12.923800000        11.767800000        29.702100000 H       725 pe       0.041986755
     4377 H5           12.684000000        12.808900000        31.116600000 H       725 pe       0.041986755
     4378 H6           12.767800000        14.673900000        29.992100000 H       725 pe       0.041986755
     4379 H8           12.460500000        13.932700000        28.450200000 H       725 pe       0.041986755
     4380 C1           14.631000000        14.079500000        28.934600000 C.3     726 pe      -0.084813245
     4381 C2           15.659600000        15.007800000        27.977300000 C.3     726 pe      -0.084813245
     4382 H4           14.761200000        13.186300000        28.472200000 H       726 pe       0.041986755
     4383 H5           15.030300000        13.836600000        29.877900000 H       726 pe       0.041986755
     4384 H6           15.380100000        14.843400000        26.968300000 H       726 pe       0.041986755
     4385 H8           16.587500000        14.436100000        27.995500000 H       726 pe       0.041986755
     4386 C1           16.231000000        16.548800000        27.876000000 C.3     727 pe      -0.084813245
     4387 C2           17.200400000        17.485800000        28.763100000 C.3     727 pe      -0.084813245
     4388 H4           15.525400000        17.243400000        27.435900000 H       727 pe       0.041986755
     4389 H5           16.911700000        16.403600000        27.037200000 H       727 pe       0.041986755
     4390 H6           17.423800000        18.222600000        27.988300000 H       727 pe       0.041986755
     4391 H8           18.151800000        16.993300000        28.851100000 H       727 pe       0.041986755
     4392 C1           16.923700000        18.548600000        29.943300000 C.3     728 pe      -0.084813245
     4393 C2           17.304600000        18.569500000        31.514500000 C.3     728 pe      -0.084813245
     4394 H4           15.975000000        19.050500000        29.818700000 H       728 pe       0.041986755
     4395 H5           17.625400000        19.315300000        29.610000000 H       728 pe       0.041986755
     4396 H6           17.501600000        19.635900000        31.620900000 H       728 pe       0.041986755
     4397 H8           18.287300000        18.168600000        31.699500000 H       728 pe       0.041986755
     4398 C1           16.371200000        18.372000000        32.796800000 C.3     729 pe      -0.084813245
     4399 C2           16.435800000        17.202800000        33.882100000 C.3     729 pe      -0.084813245
     4400 H4           15.338800000        18.663000000        32.603200000 H       729 pe       0.041986755
     4401 H5           16.718700000        19.202200000        33.407800000 H       729 pe       0.041986755
     4402 H6           16.070000000        17.749600000        34.742500000 H       729 pe       0.041986755
     4403 H8           17.460300000        16.966100000        34.145900000 H       729 pe       0.041986755
     4404 C1           15.530000000        15.904300000        33.976200000 C.3     730 pe      -0.084813245
     4405 C2           16.145800000        14.446600000        34.033900000 C.3     730 pe      -0.084813245
     4406 H4           14.701600000        15.966900000        33.297700000 H       730 pe       0.041986755
     4407 H5           15.052800000        15.994500000        34.948600000 H       730 pe       0.041986755
     4408 H6           16.171700000        14.180000000        35.091000000 H       730 pe       0.041986755
     4409 H8           17.180500000        14.453400000        33.726500000 H       730 pe       0.041986755
     4410 C1           15.372500000        13.267900000        33.310100000 C.3     731 pe      -0.084813245
     4411 C2           16.198900000        12.109300000        32.619600000 C.3     731 pe      -0.084813245
     4412 H4           14.641900000        13.668400000        32.612900000 H       731 pe       0.041986755
     4413 H5           14.798600000        12.789600000        34.098600000 H       731 pe       0.041986755
     4414 H6           16.130400000        11.309100000        33.353900000 H       731 pe       0.041986755
     4415 H8           17.252800000        12.332000000        32.573000000 H       731 pe       0.041986755
     4416 C1           15.703700000        11.421200000        31.283100000 C.3     732 pe      -0.084813245
     4417 C2           16.412600000        11.509600000        29.862500000 C.3     732 pe      -0.084813245
     4418 H4           14.650400000        11.625800000        31.197700000 H       732 pe       0.041986755
     4419 H5           15.795300000        10.365600000        31.509400000 H       732 pe       0.041986755
     4420 H6           17.337000000        10.944100000        29.977700000 H       732 pe       0.041986755
     4421 H8           16.728600000        12.513900000        29.631200000 H       732 pe       0.041986755
     4422 C1           15.626300000        10.843000000        28.637600000 C.3     733 pe      -0.084813245
     4423 C2           15.440100000        11.412000000        27.141600000 C.3     733 pe      -0.084813245
     4424 H4           14.649000000        10.596900000        29.008800000 H       733 pe       0.041986755
     4425 H5           16.139700000         9.893960000        28.493900000 H       733 pe       0.041986755
     4426 H6           15.696800000        10.581300000        26.491900000 H       733 pe       0.041986755
     4427 H8           16.157000000        12.199700000        26.913200000 H       733 pe       0.041986755
     4428 C1           14.007900000        11.874500000        26.602300000 C.3     734 pe      -0.084813245
     4429 C2           13.840200000        13.235100000        25.786500000 C.3     734 pe      -0.084813245
     4430 H4           13.233000000        11.794400000        27.358400000 H       734 pe       0.041986755
     4431 H5           13.772600000        11.094500000        25.879400000 H       734 pe       0.041986755
     4432 H6           13.377700000        12.839600000        24.884500000 H       734 pe       0.041986755
     4433 H8           14.805100000        13.559500000        25.405500000 H       734 pe       0.041986755
     4434 C1           12.853000000        14.477300000        26.113600000 C.3     735 pe      -0.084813245
     4435 C2           13.120200000        15.932400000        26.788600000 C.3     735 pe      -0.084813245
     4436 H4           11.887800000        14.103100000        26.433300000 H       735 pe       0.041986755
     4437 H5           12.609800000        14.784000000        25.095700000 H       735 pe       0.041986755
     4438 H6           12.269700000        16.465000000        26.362800000 H       735 pe       0.041986755
     4439 H8           13.940100000        16.398000000        26.264800000 H       735 pe       0.041986755
     4440 C1           12.980900000        16.537900000        28.294000000 C.3     736 pe      -0.084813245
     4441 C2           13.978900000        16.935900000        29.519700000 C.3     736 pe      -0.084813245
     4442 H4           12.004500000        16.271700000        28.700600000 H       736 pe       0.041986755
     4443 H5           12.801800000        17.563600000        27.995000000 H       736 pe       0.041986755
     4444 H6           13.198800000        17.259000000        30.212500000 H       736 pe       0.041986755
     4445 H8           14.369500000        17.876900000        29.185600000 H       736 pe       0.041986755
     4446 C1           14.974900000        16.283400000        30.659500000 C.3     737 pe      -0.084813245
     4447 C2           16.451900000        15.497100000        30.829700000 C.3     737 pe      -0.084813245
     4448 H4           14.285600000        15.669600000        31.225800000 H       737 pe       0.041986755
     4449 H5           15.043100000        17.149500000        31.230800000 H       737 pe       0.041986755
     4450 H6           16.822000000        15.058800000        29.961500000 H       737 pe       0.041986755
     4451 H8           16.175000000        14.698700000        31.459000000 H       737 pe       0.041986755
     4452 C1           17.938300000        15.653200000        31.346400000 C.3     738 pe      -0.084813245
     4453 C2           18.755000000        14.332600000        31.360200000 C.3     738 pe      -0.084813245
     4454 H4           18.015200000        15.992600000        32.350800000 H       738 pe       0.041986755
     4455 H5           18.557800000        16.280700000        30.741000000 H       738 pe       0.041986755
     4456 H6           18.157400000        13.507700000        31.020000000 H       738 pe       0.041986755
     4457 H8           19.058000000        14.128500000        32.387000000 H       738 pe       0.041986755
     4458 C1           20.048800000        14.297700000        30.533300000 C.3     739 pe      -0.084813245
     4459 C2           19.750800000        14.088200000        29.040800000 C.3     739 pe      -0.084813245
     4460 H4           20.629800000        13.449600000        30.893200000 H       739 pe       0.041986755
     4461 H5           20.636500000        15.199900000        30.686100000 H       739 pe       0.041986755
     4462 H6           19.406200000        15.022700000        28.612600000 H       739 pe       0.041986755
     4463 H8           18.969000000        13.341300000        28.914700000 H       739 pe       0.041986755
     4464 C1           20.981800000        13.571900000        28.283700000 C.3     740 pe      -0.084813245
     4465 C2           21.222500000        14.340700000        26.975700000 C.3     740 pe      -0.084813245
     4466 H4           20.805800000        12.523200000        28.038900000 H       740 pe       0.041986755
     4467 H5           21.871300000        13.624500000        28.907500000 H       740 pe       0.041986755
     4468 H6           20.280500000        14.473600000        26.443100000 H       740 pe       0.041986755
     4469 H8           21.887300000        13.740000000        26.356200000 H       740 pe       0.041986755
     4470 C1           21.909400000        15.692200000        27.231500000 C.3     741 pe      -0.084813245
     4471 C2           21.063800000        16.880100000        26.744200000 C.3     741 pe      -0.084813245
     4472 H4           22.859500000        15.693600000        26.698400000 H       741 pe       0.041986755
     4473 H5           22.107000000        15.798800000        28.291400000 H       741 pe       0.041986755
     4474 H6           20.055400000        16.825200000        27.148200000 H       741 pe       0.041986755
     4475 H8           21.006400000        16.828000000        25.656800000 H       741 pe       0.041986755
     4476 C1           21.700100000        18.230500000        27.123900000 C.3     742 pe      -0.084813245
     4477 C2           21.038800000        18.928900000        28.329400000 C.3     742 pe      -0.084813245
     4478 H4           21.590300000        18.894900000        26.266600000 H       742 pe       0.041986755
     4479 H5           22.765800000        18.098300000        27.310100000 H       742 pe       0.041986755
     4480 H6           19.974300000        19.057100000        28.137900000 H       742 pe       0.041986755
     4481 H8           21.482500000        19.914600000        28.428500000 H       742 pe       0.041986755
     4482 C1           21.227200000        18.154400000        29.640900000 C.3     743 pe      -0.084813245
     4483 C2           21.100100000        19.019500000        30.902800000 C.3     743 pe      -0.084813245
     4484 H4           22.188200000        17.659900000        29.650500000 H       743 pe       0.041986755
     4485 H5           20.454200000        17.394700000        29.683400000 H       743 pe       0.041986755
     4486 H6           20.605000000        18.398900000        31.646900000 H       743 pe       0.041986755
     4487 H8           20.474100000        19.891500000        30.716400000 H       743 pe       0.041986755
     4488 C1           22.442200000        19.416700000        31.543100000 C.3     744 pe      -0.084813245
     4489 C2           23.141800000        20.649000000        30.934500000 C.3     744 pe      -0.084813245
     4490 H4           23.098600000        18.554500000        31.569900000 H       744 pe       0.041986755
     4491 H5           22.217700000        19.676400000        32.577500000 H       744 pe       0.041986755
     4492 H6           23.618600000        21.190900000        31.747900000 H       744 pe       0.041986755
     4493 H8           22.384500000        21.303700000        30.513600000 H       744 pe       0.041986755
     4494 C1           24.222500000        20.400500000        29.864100000 C.3     745 pe      -0.084813245
     4495 C2           25.382400000        19.501700000        30.328500000 C.3     745 pe      -0.084813245
     4496 H4           24.649200000        21.371900000        29.614500000 H       745 pe       0.041986755
     4497 H5           23.773100000        20.002600000        28.959300000 H       745 pe       0.041986755
     4498 H6           25.298200000        19.294600000        31.392400000 H       745 pe       0.041986755
     4499 H8           26.318700000        20.034000000        30.161500000 H       745 pe       0.041986755
     4500 C1           25.416900000        18.199400000        29.511000000 C.3     746 pe      -0.084813245
     4501 C2           26.186600000        17.077200000        30.219300000 C.3     746 pe      -0.084813245
     4502 H4           25.905900000        18.408700000        28.559800000 H       746 pe       0.041986755
     4503 H5           24.412200000        17.854600000        29.308300000 H       746 pe       0.041986755
     4504 H6           27.015300000        17.521000000        30.766300000 H       746 pe       0.041986755
     4505 H8           26.593900000        16.402500000        29.467100000 H       746 pe       0.041986755
     4506 C1           25.321900000        16.270800000        31.205900000 C.3     747 pe      -0.084813245
     4507 C2           24.275200000        15.362100000        30.528800000 C.3     747 pe      -0.084813245
     4508 H4           24.809800000        16.948300000        31.884000000 H       747 pe       0.041986755
     4509 H5           25.991400000        15.667700000        31.804300000 H       747 pe       0.041986755
     4510 H6           24.292000000        15.495800000        29.452500000 H       747 pe       0.041986755
     4511 H8           23.295900000        15.666800000        30.895800000 H       747 pe       0.041986755
     4512 C1           24.444900000        13.868300000        30.855900000 C.3     748 pe      -0.084813245
     4513 C2           25.622300000        13.203300000        30.114800000 C.3     748 pe      -0.084813245
     4514 H4           23.518900000        13.349000000        30.622300000 H       748 pe       0.041986755
     4515 H5           24.600600000        13.763000000        31.927800000 H       748 pe       0.041986755
     4516 H6           26.022200000        12.432200000        30.773400000 H       748 pe       0.041986755
     4517 H8           26.399700000        13.938700000        29.942100000 H       748 pe       0.041986755
     4518 C1           25.265700000        12.520000000        28.778500000 C.3     749 pe      -0.084813245
     4519 C2           25.607200000        13.369900000        27.542300000 C.3     749 pe      -0.084813245
     4520 H4           24.205900000        12.273600000        28.748100000 H       749 pe       0.041986755
     4521 H5           25.823500000        11.585400000        28.713800000 H       749 pe       0.041986755
     4522 H6           25.197100000        14.370100000        27.653700000 H       749 pe       0.041986755
     4523 H8           25.133100000        12.907300000        26.677200000 H       749 pe       0.041986755
     4524 C1           27.121100000        13.481400000        27.288200000 C.3     750 pe      -0.084813245
     4525 C2           27.511000000        12.787100000        25.979800000 C.3     750 pe      -0.084813245
     4526 H4           27.687200000        13.028400000        28.101400000 H       750 pe       0.041986755
     4527 H5           27.388100000        14.536000000        27.217400000 H       750 pe       0.041986755
     4528 H6           27.241000000        11.731700000        26.026000000 H       750 pe       0.041986755
     4529 H7           27.002200000        13.261900000        25.140400000 H       750 pe       0.041986755
     4530 H8           28.587900000        12.874200000        25.838600000 H       750 pe       0.041986755
     4531 C1           33.022900000        51.330280000        13.415300000 C.3     751 pe      -0.084813245
     4532 C2           32.416300000        52.708430000        13.118200000 C.3     751 pe      -0.084813245
     4533 H3           32.562400000        50.565930000        12.790600000 H       751 pe       0.041986755
     4534 H4           34.096700000        51.351990000        13.229400000 H       751 pe       0.041986755
     4535 H5           32.852000000        51.083400000        14.462900000 H       751 pe       0.041986755
     4536 H6           32.952600000        53.449510000        13.710300000 H       751 pe       0.041986755
     4537 H8           31.369800000        52.714640000        13.418700000 H       751 pe       0.041986755
     4538 C1           32.545400000        53.081730000        11.631500000 C.3     752 pe      -0.084813245
     4539 C2           31.368200000        52.555580000        10.797300000 C.3     752 pe      -0.084813245
     4540 H4           33.471000000        52.661710000        11.238700000 H       752 pe       0.041986755
     4541 H5           32.590800000        54.166480000        11.539200000 H       752 pe       0.041986755
     4542 H6           31.038100000        51.609040000        11.220500000 H       752 pe       0.041986755
     4543 H8           31.712900000        52.385050000         9.777760000 H       752 pe       0.041986755
     4544 C1           30.211600000        53.570580000        10.755400000 C.3     753 pe      -0.084813245
     4545 C2           28.937100000        52.929210000        10.172900000 C.3     753 pe      -0.084813245
     4546 H4           30.498700000        54.404440000        10.115600000 H       753 pe       0.041986755
     4547 H5           30.035300000        53.956400000        11.757400000 H       753 pe       0.041986755
     4548 H6           29.122400000        51.873420000        10.016900000 H       753 pe       0.041986755
     4549 H8           28.719300000        53.382530000         9.206280000 H       753 pe       0.041986755
     4550 C1           27.717400000        53.109060000        11.093900000 C.3     754 pe      -0.084813245
     4551 C2           26.646300000        52.016860000        10.894500000 C.3     754 pe      -0.084813245
     4552 H4           27.265900000        54.078780000        10.885700000 H       754 pe       0.041986755
     4553 H5           28.041400000        53.104400000        12.127800000 H       754 pe       0.041986755
     4554 H6           26.956400000        51.269090000        10.167100000 H       754 pe       0.041986755
     4555 H8           25.755300000        52.507380000        10.503100000 H       754 pe       0.041986755
     4556 C1           26.248700000        51.328290000        12.214900000 C.3     755 pe      -0.084813245
     4557 C2           26.924500000        49.975670000        12.496800000 C.3     755 pe      -0.084813245
     4558 H4           25.185400000        51.111640000        12.136600000 H       755 pe       0.041986755
     4559 H5           26.385000000        51.997270000        13.056600000 H       755 pe       0.041986755
     4560 H6           26.638100000        49.321630000        11.679400000 H       755 pe       0.041986755
     4561 H8           26.504300000        49.566030000        13.411800000 H       755 pe       0.041986755
     4562 C1           28.460200000        49.958630000        12.617500000 C.3     756 pe      -0.084813245
     4563 C2           29.017300000        50.034320000        14.041200000 C.3     756 pe      -0.084813245
     4564 H4           28.905900000        50.743380000        12.025800000 H       756 pe       0.041986755
     4565 H5           28.802700000        49.004020000        12.225600000 H       756 pe       0.041986755
     4566 H6           30.100100000        49.936240000        13.973600000 H       756 pe       0.041986755
     4567 H8           28.631100000        49.196460000        14.609500000 H       756 pe       0.041986755
     4568 C1           28.676700000        51.335050000        14.771600000 C.3     757 pe      -0.084813245
     4569 C2           29.556200000        51.456830000        16.022100000 C.3     757 pe      -0.084813245
     4570 H4           27.625900000        51.304950000        15.045700000 H       757 pe       0.041986755
     4571 H5           28.869400000        52.186770000        14.124900000 H       757 pe       0.041986755
     4572 H6           30.592600000        51.541690000        15.699800000 H       757 pe       0.041986755
     4573 H8           29.470700000        50.552920000        16.613800000 H       757 pe       0.041986755
     4574 C1           29.246600000        52.708710000        16.863200000 C.3     758 pe      -0.084813245
     4575 C2           27.873500000        52.769260000        17.565700000 C.3     758 pe      -0.084813245
     4576 H4           29.313400000        53.571610000        16.201200000 H       758 pe       0.041986755
     4577 H5           30.027900000        52.809410000        17.615800000 H       758 pe       0.041986755
     4578 H6           27.065900000        52.456680000        16.908800000 H       758 pe       0.041986755
     4579 H8           27.701700000        53.818100000        17.805900000 H       758 pe       0.041986755
     4580 C1           27.795600000        52.007170000        18.898900000 C.3     759 pe      -0.084813245
     4581 C2           27.593300000        50.493160000        18.745800000 C.3     759 pe      -0.084813245
     4582 H4           26.928400000        52.389680000        19.437000000 H       759 pe       0.041986755
     4583 H5           28.679300000        52.217350000        19.500000000 H       759 pe       0.041986755
     4584 H6           27.463100000        50.229450000        17.698500000 H       759 pe       0.041986755
     4585 H8           26.678200000        50.246180000        19.280500000 H       759 pe       0.041986755
     4586 C1           28.780600000        49.725010000        19.360200000 C.3     760 pe      -0.084813245
     4587 C2           28.805200000        48.188920000        19.222600000 C.3     760 pe      -0.084813245
     4588 H4           28.829100000        49.949630000        20.422300000 H       760 pe       0.041986755
     4589 H5           29.703600000        50.092740000        18.915600000 H       760 pe       0.041986755
     4590 H6           29.067000000        47.805170000        20.203600000 H       760 pe       0.041986755
     4591 H8           29.623500000        47.931210000        18.555300000 H       760 pe       0.041986755
     4592 C1           27.525500000        47.436240000        18.808800000 C.3     761 pe      -0.084813245
     4593 C2           27.788600000        46.409270000        17.702300000 C.3     761 pe      -0.084813245
     4594 H4           26.726500000        48.085530000        18.479400000 H       761 pe       0.041986755
     4595 H5           27.173500000        46.889910000        19.682900000 H       761 pe       0.041986755
     4596 H6           26.881700000        45.821880000        17.602800000 H       761 pe       0.041986755
     4597 H8           28.599600000        45.756244000        18.010400000 H       761 pe       0.041986755
     4598 C1           28.093200000        47.066090000        16.344900000 C.3     762 pe      -0.084813245
     4599 C2           28.059800000        46.064003000        15.179100000 C.3     762 pe      -0.084813245
     4600 H4           29.060400000        47.563150000        16.364100000 H       762 pe       0.041986755
     4601 H5           27.321400000        47.810660000        16.155300000 H       762 pe       0.041986755
     4602 H6           27.539000000        46.557740000        14.358400000 H       762 pe       0.041986755
     4603 H8           27.474100000        45.196400000        15.449700000 H       762 pe       0.041986755
     4604 C1           29.439800000        45.648222000        14.628800000 C.3     763 pe      -0.084813245
     4605 C2           30.442300000        44.977400000        15.594700000 C.3     763 pe      -0.084813245
     4606 H4           29.918300000        46.554240000        14.256700000 H       763 pe       0.041986755
     4607 H5           29.279100000        44.995000000        13.771700000 H       763 pe       0.041986755
     4608 H6           30.409100000        45.434396900        16.579000000 H       763 pe       0.041986755
     4609 H8           31.426600000        45.204000000        15.185500000 H       763 pe       0.041986755
     4610 C1           30.390000000        43.435200000        15.689300000 C.3     764 pe      -0.084813245
     4611 C2           29.641000000        42.868800000        16.908900000 C.3     764 pe      -0.084813245
     4612 H4           31.423900000        43.106100000        15.793700000 H       764 pe       0.041986755
     4613 H5           30.004300000        42.999000000        14.771500000 H       764 pe       0.041986755
     4614 H6           29.680200000        43.586500000        17.723700000 H       764 pe       0.041986755
     4615 H8           30.166100000        41.969700000        17.229800000 H       764 pe       0.041986755
     4616 C1           28.195900000        42.455600000        16.583200000 C.3     765 pe      -0.084813245
     4617 C2           27.249100000        42.607200000        17.787800000 C.3     765 pe      -0.084813245
     4618 H4           28.196300000        41.411300000        16.270200000 H       765 pe       0.041986755
     4619 H5           27.825100000        43.045200000        15.753800000 H       765 pe       0.041986755
     4620 H6           27.542300000        43.448100000        18.410700000 H       765 pe       0.041986755
     4621 H8           27.285700000        41.695200000        18.380100000 H       765 pe       0.041986755
     4622 C1           25.821000000        42.841300000        17.279600000 C.3     766 pe      -0.084813245
     4623 C2           24.745700000        42.749900000        18.366500000 C.3     766 pe      -0.084813245
     4624 H4           25.595300000        42.068300000        16.552300000 H       766 pe       0.041986755
     4625 H5           25.750200000        43.810700000        16.790100000 H       766 pe       0.041986755
     4626 H6           24.781000000        41.759900000        18.803700000 H       766 pe       0.041986755
     4627 H8           23.787200000        42.868800000        17.863700000 H       766 pe       0.041986755
     4628 C1           24.873900000        43.784400000        19.498100000 C.3     767 pe      -0.084813245
     4629 C2           23.516200000        44.415000000        19.831100000 C.3     767 pe      -0.084813245
     4630 H4           25.533500000        44.590400000        19.187300000 H       767 pe       0.041986755
     4631 H5           25.289200000        43.308700000        20.386000000 H       767 pe       0.041986755
     4632 H6           23.141400000        44.838200000        18.909600000 H       767 pe       0.041986755
     4633 H8           23.680200000        45.236200000        20.518500000 H       767 pe       0.041986755
     4634 C1           22.518600000        43.423400000        20.473100000 C.3     768 pe      -0.084813245
     4635 C2           21.049200000        43.883300000        20.464600000 C.3     768 pe      -0.084813245
     4636 H4           22.813800000        43.283800000        21.507900000 H       768 pe       0.041986755
     4637 H5           22.567900000        42.458000000        19.975900000 H       768 pe       0.041986755
     4638 H6           20.941600000        44.786100000        21.064300000 H       768 pe       0.041986755
     4639 H8           20.432900000        43.094300000        20.892700000 H       768 pe       0.041986755
     4640 C1           20.619500000        44.175500000        19.026100000 C.3     769 pe      -0.084813245
     4641 C2           19.179600000        43.839300000        18.633400000 C.3     769 pe      -0.084813245
     4642 H4           21.266200000        43.609000000        18.362500000 H       769 pe       0.041986755
     4643 H5           20.765100000        45.240900000        18.875000000 H       769 pe       0.041986755
     4644 H6           18.504100000        44.605400000        19.003100000 H       769 pe       0.041986755
     4645 H8           18.893200000        42.886600000        19.076500000 H       769 pe       0.041986755
     4646 C1           19.044600000        43.695700000        17.101600000 C.3     770 pe      -0.084813245
     4647 C2           19.835900000        44.684000000        16.204100000 C.3     770 pe      -0.084813245
     4648 H4           17.988700000        43.802500000        16.855900000 H       770 pe       0.041986755
     4649 H5           19.334200000        42.679800000        16.864800000 H       770 pe       0.041986755
     4650 H6           20.785000000        44.998700000        16.613900000 H       770 pe       0.041986755
     4651 H8           19.228000000        45.569922000        16.081600000 H       770 pe       0.041986755
     4652 C1           20.146700000        44.125500000        14.809000000 C.3     771 pe      -0.084813245
     4653 C2           21.245000000        43.056600000        14.814400000 C.3     771 pe      -0.084813245
     4654 H4           20.448900000        44.951900000        14.166200000 H       771 pe       0.041986755
     4655 H5           19.252700000        43.669400000        14.414400000 H       771 pe       0.041986755
     4656 H6           20.828800000        42.159200000        15.254800000 H       771 pe       0.041986755
     4657 H8           22.097200000        43.378500000        15.404000000 H       771 pe       0.041986755
     4658 C1           21.661300000        42.668500000        13.391500000 C.3     772 pe      -0.084813245
     4659 C2           22.892000000        43.395900000        12.838200000 C.3     772 pe      -0.084813245
     4660 H4           20.825300000        42.866700000        12.721200000 H       772 pe       0.041986755
     4661 H5           21.848500000        41.607600000        13.365500000 H       772 pe       0.041986755
     4662 H6           22.658100000        44.457300000        12.855000000 H       772 pe       0.041986755
     4663 H8           23.015300000        43.082400000        11.803600000 H       772 pe       0.041986755
     4664 C1           24.249700000        43.212400000        13.544800000 C.3     773 pe      -0.084813245
     4665 C2           24.772500000        41.790000000        13.787600000 C.3     773 pe      -0.084813245
     4666 H4           24.212600000        43.699500000        14.515100000 H       773 pe       0.041986755
     4667 H5           24.996300000        43.734700000        12.948600000 H       773 pe       0.041986755
     4668 H6           24.173200000        41.309400000        14.548200000 H       773 pe       0.041986755
     4669 H8           25.775600000        41.927500000        14.186600000 H       773 pe       0.041986755
     4670 C1           24.878300000        40.875100000        12.558500000 C.3     774 pe      -0.084813245
     4671 C2           25.625000000        39.589000000        12.971500000 C.3     774 pe      -0.084813245
     4672 H4           25.426800000        41.414100000        11.795700000 H       774 pe       0.041986755
     4673 H5           23.893600000        40.621400000        12.175500000 H       774 pe       0.041986755
     4674 H6           24.965700000        38.970900000        13.577500000 H       774 pe       0.041986755
     4675 H8           26.465800000        39.886300000        13.582500000 H       774 pe       0.041986755
     4676 C1           26.128900000        38.745500000        11.784400000 C.3     775 pe      -0.084813245
     4677 C2           27.290100000        37.779200000        12.113500000 C.3     775 pe      -0.084813245
     4678 H4           26.446600000        39.387700000        10.979000000 H       775 pe       0.041986755
     4679 H5           25.290300000        38.153400000        11.420300000 H       775 pe       0.041986755
     4680 H6           27.489000000        37.185500000        11.221100000 H       775 pe       0.041986755
     4681 H8           26.954600000        37.095500000        12.885400000 H       775 pe       0.041986755
     4682 C1           28.630800000        38.394500000        12.580300000 C.3     776 pe      -0.084813245
     4683 C2           29.400700000        39.127700000        11.467400000 C.3     776 pe      -0.084813245
     4684 H4           29.262000000        37.569100000        12.907800000 H       776 pe       0.041986755
     4685 H5           28.493000000        39.043600000        13.439900000 H       776 pe       0.041986755
     4686 H6           28.790800000        39.190900000        10.571600000 H       776 pe       0.041986755
     4687 H8           30.280100000        38.528800000        11.230700000 H       776 pe       0.041986755
     4688 C1           29.888400000        40.529200000        11.890500000 C.3     777 pe      -0.084813245
     4689 C2           28.761500000        41.578800000        11.909700000 C.3     777 pe      -0.084813245
     4690 H4           30.675200000        40.855000000        11.211600000 H       777 pe       0.041986755
     4691 H5           30.321400000        40.464500000        12.888800000 H       777 pe       0.041986755
     4692 H6           28.871100000        42.164000000        12.819700000 H       777 pe       0.041986755
     4693 H8           27.806400000        41.082600000        11.956800000 H       777 pe       0.041986755
     4694 C1           28.755600000        42.570100000        10.731400000 C.3     778 pe      -0.084813245
     4695 C2           28.583600000        41.940500000         9.339420000 C.3     778 pe      -0.084813245
     4696 H4           29.698300000        43.117200000        10.743400000 H       778 pe       0.041986755
     4697 H5           27.947900000        43.282800000        10.890200000 H       778 pe       0.041986755
     4698 H6           29.210500000        41.065700000         9.272280000 H       778 pe       0.041986755
     4699 H8           28.946700000        42.663500000         8.620160000 H       778 pe       0.041986755
     4700 C1           27.132900000        41.573400000         8.980860000 C.3     779 pe      -0.084813245
     4701 C2           27.048800000        40.401800000         7.974730000 C.3     779 pe      -0.084813245
     4702 H4           26.625200000        42.445400000         8.570560000 H       779 pe       0.041986755
     4703 H5           26.628100000        41.304500000         9.891940000 H       779 pe       0.041986755
     4704 H6           27.789200000        39.643300000         8.222470000 H       779 pe       0.041986755
     4705 H8           27.247500000        40.764800000         6.969970000 H       779 pe       0.041986755
     4706 C1           25.681200000        39.703600000         8.032360000 C.3     780 pe      -0.084813245
     4707 C2           24.951400000        39.550900000         6.684010000 C.3     780 pe      -0.084813245
     4708 H4           25.014100000        40.276600000         8.674330000 H       780 pe       0.041986755
     4709 H5           25.827700000        38.729300000         8.491730000 H       780 pe       0.041986755
     4710 H6           24.854000000        40.530500000         6.225380000 H       780 pe       0.041986755
     4711 H8           23.948200000        39.219900000         6.920170000 H       780 pe       0.041986755
     4712 C1           25.533800000        38.580500000         5.633770000 C.3     781 pe      -0.084813245
     4713 C2           25.767200000        37.150600000         6.159390000 C.3     781 pe      -0.084813245
     4714 H4           26.458600000        38.994400000         5.243150000 H       781 pe       0.041986755
     4715 H5           24.820700000        38.536800000         4.816450000 H       781 pe       0.041986755
     4716 H6           25.079500000        36.977000000         6.966080000 H       781 pe       0.041986755
     4717 H8           26.759900000        37.092000000         6.587130000 H       781 pe       0.041986755
     4718 C1           25.561500000        36.017500000         5.124410000 C.3     782 pe      -0.084813245
     4719 C2           26.635600000        34.923600000         5.318550000 C.3     782 pe      -0.084813245
     4720 H4           25.608900000        36.405900000         4.111380000 H       782 pe       0.041986755
     4721 H5           24.571800000        35.587400000         5.252420000 H       782 pe       0.041986755
     4722 H6           26.920900000        34.866000000         6.354100000 H       782 pe       0.041986755
     4723 H8           27.528800000        35.213600000         4.780390000 H       782 pe       0.041986755
     4724 C1           26.260400000        33.522400000         4.804290000 C.3     783 pe      -0.084813245
     4725 C2           25.400900000        32.623300000         5.717660000 C.3     783 pe      -0.084813245
     4726 H4           27.190800000        32.990600000         4.606380000 H       783 pe       0.041986755
     4727 H5           25.733300000        33.634900000         3.857440000 H       783 pe       0.041986755
     4728 H6           25.292500000        31.687400000         5.169820000 H       783 pe       0.041986755
     4729 H8           24.394500000        33.024400000         5.810910000 H       783 pe       0.041986755
     4730 C1           26.003300000        32.220400000         7.089770000 C.3     784 pe      -0.084813245
     4731 C2           26.005800000        33.229100000         8.263950000 C.3     784 pe      -0.084813245
     4732 H4           27.028300000        31.885700000         6.931360000 H       784 pe       0.041986755
     4733 H5           25.427600000        31.359800000         7.430350000 H       784 pe       0.041986755
     4734 H6           26.918200000        33.819800000         8.259460000 H       784 pe       0.041986755
     4735 H8           26.010700000        32.650600000         9.187320000 H       784 pe       0.041986755
     4736 C1           24.766800000        34.132800000         8.284650000 C.3     785 pe      -0.084813245
     4737 C2           24.856300000        35.290600000         9.288890000 C.3     785 pe      -0.084813245
     4738 H4           23.924400000        33.483100000         8.495740000 H       785 pe       0.041986755
     4739 H5           24.621500000        34.600600000         7.327570000 H       785 pe       0.041986755
     4740 H6           25.745900000        35.875200000         9.056750000 H       785 pe       0.041986755
     4741 H8           24.991500000        34.888400000        10.290700000 H       785 pe       0.041986755
     4742 C1           23.649800000        36.265800000         9.301410000 C.3     786 pe      -0.084813245
     4743 C2           22.365400000        35.943100000         8.489400000 C.3     786 pe      -0.084813245
     4744 H4           24.004100000        37.250900000         9.014610000 H       786 pe       0.041986755
     4745 H5           23.356800000        36.347500000        10.342200000 H       786 pe       0.041986755
     4746 H6           21.522000000        36.037700000         9.158750000 H       786 pe       0.041986755
     4747 H8           22.345500000        34.942500000         8.095370000 H       786 pe       0.041986755
     4748 C1           22.151900000        36.873600000         7.293260000 C.3     787 pe      -0.084813245
     4749 C2           20.806900000        36.662900000         6.587750000 C.3     787 pe      -0.084813245
     4750 H4           22.929400000        36.667800000         6.573850000 H       787 pe       0.041986755
     4751 H5           22.212400000        37.905900000         7.610560000 H       787 pe       0.041986755
     4752 H6           20.043400000        37.279100000         7.062830000 H       787 pe       0.041986755
     4753 H8           20.514300000        35.616100000         6.660570000 H       787 pe       0.041986755
     4754 C1           20.932300000        37.023200000         5.096350000 C.3     788 pe      -0.084813245
     4755 C2           21.344800000        38.490800000         4.876000000 C.3     788 pe      -0.084813245
     4756 H4           19.974100000        36.851100000         4.612780000 H       788 pe       0.041986755
     4757 H5           21.664400000        36.354300000         4.647200000 H       788 pe       0.041986755
     4758 H6           22.362700000        38.648500000         5.215530000 H       788 pe       0.041986755
     4759 H8           20.695100000        39.119200000         5.471760000 H       788 pe       0.041986755
     4760 C1           21.265900000        38.945400000         3.408340000 C.3     789 pe      -0.084813245
     4761 C2           22.295100000        38.183800000         2.566260000 C.3     789 pe      -0.084813245
     4762 H4           21.490700000        40.011900000         3.376060000 H       789 pe       0.041986755
     4763 H5           20.267700000        38.777900000         3.008130000 H       789 pe       0.041986755
     4764 H6           21.982900000        37.144200000         2.491070000 H       789 pe       0.041986755
     4765 H8           23.257900000        38.244300000         3.066470000 H       789 pe       0.041986755
     4766 C1           22.453100000        38.724700000         1.140570000 C.3     790 pe      -0.084813245
     4767 C2           23.821500000        38.332700000         0.551995000 C.3     790 pe      -0.084813245
     4768 H4           22.389700000        39.813000000         1.150970000 H       790 pe       0.041986755
     4769 H5           21.652900000        38.329400000         0.515285000 H       790 pe       0.041986755
     4770 H6           24.581500000        38.919100000         1.064440000 H       790 pe       0.041986755
     4771 H8           23.826100000        38.617900000        -0.499900000 H       790 pe       0.041986755
     4772 C1           24.138200000        36.821700000         0.657830000 C.3     791 pe      -0.084813245
     4773 C2           25.512100000        36.450700000         0.078865300 C.3     791 pe      -0.084813245
     4774 H4           23.376100000        36.277300000         0.099824500 H       791 pe       0.041986755
     4775 H5           24.126400000        36.474800000         1.688930000 H       791 pe       0.041986755
     4776 H6           25.609400000        36.890300000        -0.913300000 H       791 pe       0.041986755
     4777 H8           25.555000000        35.366400000        -0.018100000 H       791 pe       0.041986755
     4778 C1           26.684600000        36.933400000         0.953117000 C.3     792 pe      -0.084813245
     4779 C2           27.465100000        35.786700000         1.610210000 C.3     792 pe      -0.084813245
     4780 H4           26.321600000        37.602300000         1.729170000 H       792 pe       0.041986755
     4781 H5           27.369100000        37.467300000         0.304441000 H       792 pe       0.041986755
     4782 H6           27.760400000        35.075200000         0.838969000 H       792 pe       0.041986755
     4783 H8           26.821600000        35.275600000         2.320060000 H       792 pe       0.041986755
     4784 C1           28.755100000        36.258400000         2.314040000 C.3     793 pe      -0.084813245
     4785 C2           28.577300000        37.413000000         3.317880000 C.3     793 pe      -0.084813245
     4786 H4           29.452000000        36.585100000         1.547760000 H       793 pe       0.041986755
     4787 H5           29.178400000        35.398600000         2.830160000 H       793 pe       0.041986755
     4788 H6           27.654800000        37.292400000         3.856830000 H       793 pe       0.041986755
     4789 H8           28.502600000        38.337300000         2.761030000 H       793 pe       0.041986755
     4790 C1           29.724500000        37.507600000         4.344310000 C.3     794 pe      -0.084813245
     4791 C2           29.391500000        38.536700000         5.437590000 C.3     794 pe      -0.084813245
     4792 H4           30.634300000        37.811500000         3.832360000 H       794 pe       0.041986755
     4793 H5           29.877000000        36.538600000         4.819170000 H       794 pe       0.041986755
     4794 H6           28.522200000        38.204600000         5.977610000 H       794 pe       0.041986755
     4795 H8           29.163600000        39.495500000         4.978310000 H       794 pe       0.041986755
     4796 C1           30.491800000        38.695800000         6.492880000 C.3     795 pe      -0.084813245
     4797 C2           30.743600000        40.189700000         6.732310000 C.3     795 pe      -0.084813245
     4798 H4           31.401700000        38.215100000         6.144280000 H       795 pe       0.041986755
     4799 H5           30.167000000        38.221400000         7.419050000 H       795 pe       0.041986755
     4800 H6           29.804700000        40.688600000         6.950630000 H       795 pe       0.041986755
     4801 H8           31.131700000        40.575800000         5.793660000 H       795 pe       0.041986755
     4802 C1           31.720400000        40.430900000         7.906120000 C.3     796 pe      -0.084813245
     4803 C2           32.180500000        41.888900000         8.100130000 C.3     796 pe      -0.084813245
     4804 H4           32.611600000        39.848700000         7.747230000 H       796 pe       0.041986755
     4805 H5           31.268600000        40.075700000         8.829450000 H       796 pe       0.041986755
     4806 H6           33.013100000        41.892500000         8.803530000 H       796 pe       0.041986755
     4807 H8           31.372900000        42.494700000         8.503630000 H       796 pe       0.041986755
     4808 C1           32.637100000        42.478200000         6.764600000 C.3     797 pe      -0.084813245
     4809 C2           33.682500000        43.594100000         6.870360000 C.3     797 pe      -0.084813245
     4810 H4           31.754500000        42.857900000         6.257520000 H       797 pe       0.041986755
     4811 H5           33.082200000        41.668300000         6.196910000 H       797 pe       0.041986755
     4812 H6           34.623100000        43.155100000         7.203230000 H       797 pe       0.041986755
     4813 H8           33.355400000        44.326600000         7.608280000 H       797 pe       0.041986755
     4814 C1           33.921500000        44.316300000         5.524930000 C.3     798 pe      -0.084813245
     4815 C2           33.721000000        43.431000000         4.278430000 C.3     798 pe      -0.084813245
     4816 H4           34.941600000        44.698700000         5.531730000 H       798 pe       0.041986755
     4817 H5           33.245000000        45.163100000         5.458750000 H       798 pe       0.041986755
     4818 H6           32.662900000        43.230500000         4.124330000 H       798 pe       0.041986755
     4819 H8           34.259500000        42.505800000         4.418140000 H       798 pe       0.041986755
     4820 C1           34.265500000        44.073400000         3.005390000 C.3     799 pe      -0.084813245
     4821 C2           33.997000000        43.237000000         1.733880000 C.3     799 pe      -0.084813245
     4822 H4           35.329700000        44.240500000         3.126010000 H       799 pe       0.041986755
     4823 H5           33.785700000        45.042800000         2.877840000 H       799 pe       0.041986755
     4824 H6           34.699400000        43.556100000         0.967650000 H       799 pe       0.041986755
     4825 H8           32.998200000        43.492100000         1.404030000 H       799 pe       0.041986755
     4826 C1           34.085300000        41.698800000         1.815260000 C.3     800 pe      -0.084813245
     4827 C2           33.694200000        41.099100000         0.463310000 C.3     800 pe      -0.084813245
     4828 H4           33.426000000        41.288900000         2.575600000 H       800 pe       0.041986755
     4829 H5           35.094000000        41.378200000         2.028860000 H       800 pe       0.041986755
     4830 H6           32.806800000        41.588900000         0.072074100 H       800 pe       0.041986755
     4831 H7           34.514900000        41.225000000        -0.240400000 H       800 pe       0.041986755
     4832 H8           33.484700000        40.039900000         0.592048000 H       800 pe       0.041986755
     4833 C1           -4.135700000         1.912640000        18.803800000 C.3     801 pe      -0.084813245
     4834 C2           -5.264100000         2.820310000        19.306600000 C.3     801 pe      -0.084813245
     4835 H3           -3.166800000         2.332230000        19.074800000 H       801 pe       0.041986755
     4836 H4           -4.229900000         0.934401000        19.261500000 H       801 pe       0.041986755
     4837 H5           -4.196700000         1.807380000        17.720500000 H       801 pe       0.041986755
     4838 H6           -5.170600000         2.944890000        20.384700000 H       801 pe       0.041986755
     4839 H8           -6.227600000         2.368700000        19.069800000 H       801 pe       0.041986755
     4840 C1           -5.135800000         4.172470000        18.602300000 C.3     802 pe      -0.084813245
     4841 C2           -6.095300000         5.247960000        19.137800000 C.3     802 pe      -0.084813245
     4842 H4           -5.346100000         4.028490000        17.542400000 H       802 pe       0.041986755
     4843 H5           -4.111400000         4.497960000        18.709000000 H       802 pe       0.041986755
     4844 H6           -7.022600000         4.758510000        19.433600000 H       802 pe       0.041986755
     4845 H8           -6.331800000         5.923950000        18.319500000 H       802 pe       0.041986755
     4846 C1           -5.572800000         6.055820000        20.348100000 C.3     803 pe      -0.084813245
     4847 C2           -4.325100000         6.938330000        20.125800000 C.3     803 pe      -0.084813245
     4848 H4           -5.344100000         5.355210000        21.150200000 H       803 pe       0.041986755
     4849 H5           -6.380100000         6.703540000        20.688800000 H       803 pe       0.041986755
     4850 H6           -3.503300000         6.334110000        19.763400000 H       803 pe       0.041986755
     4851 H8           -4.026700000         7.331150000        21.097700000 H       803 pe       0.041986755
     4852 C1           -4.555800000         8.147450000        19.200200000 C.3     804 pe      -0.084813245
     4853 C2           -3.234400000         8.687310000        18.624600000 C.3     804 pe      -0.084813245
     4854 H4           -5.015900000         8.937460000        19.793300000 H       804 pe       0.041986755
     4855 H5           -5.227300000         7.905330000        18.381900000 H       804 pe       0.041986755
     4856 H6           -2.390200000         8.373610000        19.236600000 H       804 pe       0.041986755
     4857 H8           -3.283100000         9.775140000        18.667900000 H       804 pe       0.041986755
     4858 C1           -3.011500000         8.310660000        17.145900000 C.3     805 pe      -0.084813245
     4859 C2           -2.874500000         6.811440000        16.832600000 C.3     805 pe      -0.084813245
     4860 H4           -2.109100000         8.806720000        16.802300000 H       805 pe       0.041986755
     4861 H5           -3.844300000         8.701980000        16.561800000 H       805 pe       0.041986755
     4862 H6           -2.878400000         6.715190000        15.748600000 H       805 pe       0.041986755
     4863 H8           -3.738000000         6.278920000        17.213200000 H       805 pe       0.041986755
     4864 C1           -1.573600000         6.199970000        17.387600000 C.3     806 pe      -0.084813245
     4865 C2           -1.427300000         4.708900000        17.059900000 C.3     806 pe      -0.084813245
     4866 H4           -1.540200000         6.301330000        18.468700000 H       806 pe       0.041986755
     4867 H5           -0.728400000         6.728210000        16.969600000 H       806 pe       0.041986755
     4868 H6           -2.387500000         4.214350000        17.172600000 H       806 pe       0.041986755
     4869 H8           -0.725800000         4.262400000        17.763300000 H       806 pe       0.041986755
     4870 C1           -0.945200000         4.474170000        15.625500000 C.3     807 pe      -0.084813245
     4871 C2            0.568445000         4.225800000        15.537400000 C.3     807 pe      -0.084813245
     4872 H4           -1.175800000         5.334630000        15.001200000 H       807 pe       0.041986755
     4873 H5           -1.496700000         3.620860000        15.237200000 H       807 pe       0.041986755
     4874 H6            1.088180000         4.930340000        16.182400000 H       807 pe       0.041986755
     4875 H8            0.874282000         4.411210000        14.509000000 H       807 pe       0.041986755
     4876 C1            0.952609000         2.791170000        15.937200000 C.3     808 pe      -0.084813245
     4877 C2            2.164220000         2.270390000        15.145800000 C.3     808 pe      -0.084813245
     4878 H4            0.126529000         2.113840000        15.728100000 H       808 pe       0.041986755
     4879 H5            1.150760000         2.754210000        17.006300000 H       808 pe       0.041986755
     4880 H6            1.938590000         2.321380000        14.089100000 H       808 pe       0.041986755
     4881 H8            2.296300000         1.216280000        15.381700000 H       808 pe       0.041986755
     4882 C1            3.480240000         3.042460000        15.349100000 C.3     809 pe      -0.084813245
     4883 C2            3.991930000         3.075510000        16.795300000 C.3     809 pe      -0.084813245
     4884 H4            3.360620000         4.066780000        14.999300000 H       809 pe       0.041986755
     4885 H5            4.241750000         2.569700000        14.727900000 H       809 pe       0.041986755
     4886 H6            3.348510000         3.710320000        17.401800000 H       809 pe       0.041986755
     4887 H8            4.989760000         3.513230000        16.773900000 H       809 pe       0.041986755
     4888 C1            4.050600000         1.662180000        17.396700000 C.3     810 pe      -0.084813245
     4889 C2            5.170170000         1.501790000        18.421500000 C.3     810 pe      -0.084813245
     4890 H4            4.269140000         0.966648000        16.594600000 H       810 pe       0.041986755
     4891 H5            3.096050000         1.400430000        17.851800000 H       810 pe       0.041986755
     4892 H6            6.083280000         1.826650000        17.936200000 H       810 pe       0.041986755
     4893 H8            5.260450000         0.448187000        18.678300000 H       810 pe       0.041986755
     4894 C1            4.895890000         2.283570000        19.712500000 C.3     811 pe      -0.084813245
     4895 C2            6.084780000         2.245560000        20.692400000 C.3     811 pe      -0.084813245
     4896 H4            4.042440000         1.823430000        20.210100000 H       811 pe       0.041986755
     4897 H5            4.627340000         3.311690000        19.487000000 H       811 pe       0.041986755
     4898 H6            6.174300000         1.227270000        21.070900000 H       811 pe       0.041986755
     4899 H8            5.850650000         2.900050000        21.531500000 H       811 pe       0.041986755
     4900 C1            7.459070000         2.653620000        20.125700000 C.3     812 pe      -0.084813245
     4901 C2            7.521590000         4.102930000        19.629800000 C.3     812 pe      -0.084813245
     4902 H4            7.778780000         1.959310000        19.360500000 H       812 pe       0.041986755
     4903 H5            8.173510000         2.574240000        20.933500000 H       812 pe       0.041986755
     4904 H6            7.982220000         4.676110000        20.427500000 H       812 pe       0.041986755
     4905 H8            6.523290000         4.475210000        19.444900000 H       812 pe       0.041986755
     4906 C1            8.337960000         4.279740000        18.342800000 C.3     813 pe      -0.084813245
     4907 C2            8.302420000         5.706560000        17.767900000 C.3     813 pe      -0.084813245
     4908 H4            7.906070000         3.636350000        17.578500000 H       813 pe       0.041986755
     4909 H5            9.366180000         3.979790000        18.516000000 H       813 pe       0.041986755
     4910 H6            7.278060000         5.935400000        17.491700000 H       813 pe       0.041986755
     4911 H8            8.892640000         5.690430000        16.853300000 H       813 pe       0.041986755
     4912 C1            8.885230000         6.825260000        18.656700000 C.3     814 pe      -0.084813245
     4913 C2            7.883870000         7.971290000        18.900200000 C.3     814 pe      -0.084813245
     4914 H4            9.739130000         7.244640000        18.124800000 H       814 pe       0.041986755
     4915 H5            9.244960000         6.437790000        19.607700000 H       814 pe       0.041986755
     4916 H6            7.319810000         8.164930000        17.992200000 H       814 pe       0.041986755
     4917 H8            8.448440000         8.870580000        19.145400000 H       814 pe       0.041986755
     4918 C1            6.957160000         7.669080000        20.089000000 C.3     815 pe      -0.084813245
     4919 C2            5.600760000         8.380800000        20.060100000 C.3     815 pe      -0.084813245
     4920 H4            7.474670000         7.985990000        20.986400000 H       815 pe       0.041986755
     4921 H5            6.773900000         6.612800000        20.168000000 H       815 pe       0.041986755
     4922 H6            5.593640000         9.161310000        19.305300000 H       815 pe       0.041986755
     4923 H8            5.474390000         8.854760000        21.032400000 H       815 pe       0.041986755
     4924 C1            4.413430000         7.410740000        19.886600000 C.3     816 pe      -0.084813245
     4925 C2            4.266360000         6.763380000        18.497600000 C.3     816 pe      -0.084813245
     4926 H4            3.499450000         7.966750000        20.095400000 H       816 pe       0.041986755
     4927 H5            4.485680000         6.616740000        20.630300000 H       816 pe       0.041986755
     4928 H6            3.355130000         6.166600000        18.522000000 H       816 pe       0.041986755
     4929 H8            5.102810000         6.106670000        18.283700000 H       816 pe       0.041986755
     4930 C1            4.148870000         7.830730000        17.404600000 C.3     817 pe      -0.084813245
     4931 C2            3.533230000         7.307710000        16.103500000 C.3     817 pe      -0.084813245
     4932 H4            5.129770000         8.230570000        17.163000000 H       817 pe       0.041986755
     4933 H5            3.534290000         8.629920000        17.798900000 H       817 pe       0.041986755
     4934 H6            2.951480000         6.404960000        16.266400000 H       817 pe       0.041986755
     4935 H8            4.337030000         7.066180000        15.414300000 H       817 pe       0.041986755
     4936 C1            2.660590000         8.400540000        15.473000000 C.3     818 pe      -0.084813245
     4937 C2            1.295480000         8.517820000        16.181000000 C.3     818 pe      -0.084813245
     4938 H4            2.485680000         8.112880000        14.438200000 H       818 pe       0.041986755
     4939 H5            3.200890000         9.345030000        15.487500000 H       818 pe       0.041986755
     4940 H6            1.282780000         7.800940000        16.998200000 H       818 pe       0.041986755
     4941 H8            0.513264000         8.236750000        15.477800000 H       818 pe       0.041986755
     4942 C1            0.955814000         9.882810000        16.815500000 C.3     819 pe      -0.084813245
     4943 C2            0.869501000        11.109300000        15.884300000 C.3     819 pe      -0.084813245
     4944 H4            1.686780000        10.094100000        17.587400000 H       819 pe       0.041986755
     4945 H5            0.000817351         9.780050000        17.325500000 H       819 pe       0.041986755
     4946 H6            1.808740000        11.261500000        15.357700000 H       819 pe       0.041986755
     4947 H8            0.702840000        11.977100000        16.522100000 H       819 pe       0.041986755
     4948 C1           -0.292500000        11.047800000        14.879600000 C.3     820 pe      -0.084813245
     4949 C2            0.215184000        10.531400000        13.527600000 C.3     820 pe      -0.084813245
     4950 H4           -0.689700000        12.052600000        14.737300000 H       820 pe       0.041986755
     4951 H5           -1.078600000        10.412100000        15.278300000 H       820 pe       0.041986755
     4952 H6            0.970401000         9.786000000        13.722900000 H       820 pe       0.041986755
     4953 H8            0.669679000        11.359600000        12.983700000 H       820 pe       0.041986755
     4954 C1           -0.869600000         9.886590000        12.653500000 C.3     821 pe      -0.084813245
     4955 C2           -0.321600000         8.706010000        11.827300000 C.3     821 pe      -0.084813245
     4956 H4           -1.302600000        10.640400000        11.996400000 H       821 pe       0.041986755
     4957 H5           -1.660300000         9.487120000        13.286900000 H       821 pe       0.041986755
     4958 H6           -1.182700000         8.231440000        11.357500000 H       821 pe       0.041986755
     4959 H8            0.125609000         7.972650000        12.494900000 H       821 pe       0.041986755
     4960 C1            0.646098000         9.093310000        10.687300000 C.3     822 pe      -0.084813245
     4961 C2            2.143480000         9.202160000        11.047700000 C.3     822 pe      -0.084813245
     4962 H4            0.325235000        10.051700000        10.280900000 H       822 pe       0.041986755
     4963 H5            0.544826000         8.348860000         9.899340000 H       822 pe       0.041986755
     4964 H6            2.283610000         9.861290000        11.895500000 H       822 pe       0.041986755
     4965 H8            2.667060000         9.668980000        10.220300000 H       822 pe       0.041986755
     4966 C1            2.840650000         7.871440000        11.366000000 C.3     823 pe      -0.084813245
     4967 C2            3.414510000         7.175110000        10.122500000 C.3     823 pe      -0.084813245
     4968 H4            2.173890000         7.188320000        11.885900000 H       823 pe       0.041986755
     4969 H5            3.655280000         8.128570000        12.027900000 H       823 pe       0.041986755
     4970 H6            4.048900000         7.860210000         9.563180000 H       823 pe       0.041986755
     4971 H8            2.589090000         6.876870000         9.480550000 H       823 pe       0.041986755
     4972 C1            4.218380000         5.911840000        10.484600000 C.3     824 pe      -0.084813245
     4973 C2            5.647260000         6.207980000        10.975300000 C.3     824 pe      -0.084813245
     4974 H4            4.306130000         5.314940000         9.576720000 H       824 pe       0.041986755
     4975 H5            3.681040000         5.325080000        11.228300000 H       824 pe       0.041986755
     4976 H6            5.949850000         7.198050000        10.641600000 H       824 pe       0.041986755
     4977 H8            6.316400000         5.477900000        10.519500000 H       824 pe       0.041986755
     4978 C1            5.794730000         6.097170000        12.503700000 C.3     825 pe      -0.084813245
     4979 C2            7.230560000         6.448000000        12.909000000 C.3     825 pe      -0.084813245
     4980 H4            5.588890000         5.072640000        12.813700000 H       825 pe       0.041986755
     4981 H5            5.104410000         6.758990000        13.012200000 H       825 pe       0.041986755
     4982 H6            7.685520000         7.101740000        12.171600000 H       825 pe       0.041986755
     4983 H8            7.783900000         5.511100000        12.901500000 H       825 pe       0.041986755
     4984 C1            7.340220000         7.035900000        14.332100000 C.3     826 pe      -0.084813245
     4985 C2            7.177900000         8.560940000        14.556700000 C.3     826 pe      -0.084813245
     4986 H4            8.319400000         6.772150000        14.712200000 H       826 pe       0.041986755
     4987 H5            6.623280000         6.519310000        14.966300000 H       826 pe       0.041986755
     4988 H6            7.780020000         8.801540000        15.432800000 H       826 pe       0.041986755
     4989 H8            6.141600000         8.772870000        14.813200000 H       826 pe       0.041986755
     4990 C1            7.623670000         9.527340000        13.439400000 C.3     827 pe      -0.084813245
     4991 C2            6.409180000         9.881660000        12.564500000 C.3     827 pe      -0.084813245
     4992 H4            8.447330000         9.106020000        12.867500000 H       827 pe       0.041986755
     4993 H5            7.976520000        10.448700000        13.903300000 H       827 pe       0.041986755
     4994 H6            5.872270000        10.707100000        13.030800000 H       827 pe       0.041986755
     4995 H8            5.746900000         9.026360000        12.540000000 H       827 pe       0.041986755
     4996 C1            6.725620000        10.216000000        11.099100000 C.3     828 pe      -0.084813245
     4997 C2            6.643400000        11.720700000        10.809800000 C.3     828 pe      -0.084813245
     4998 H4            5.968050000         9.716000000        10.497100000 H       828 pe       0.041986755
     4999 H5            7.704030000         9.834760000        10.810100000 H       828 pe       0.041986755
     5000 H6            7.447080000        12.239100000        11.333800000 H       828 pe       0.041986755
     5001 H8            5.679980000        12.107600000        11.141300000 H       828 pe       0.041986755
     5002 C1            6.775230000        11.950400000         9.298060000 C.3     829 pe      -0.084813245
     5003 C2            6.371220000        13.384400000         8.922780000 C.3     829 pe      -0.084813245
     5004 H4            6.119430000        11.263700000         8.764030000 H       829 pe       0.041986755
     5005 H5            7.804070000        11.752300000         9.003210000 H       829 pe       0.041986755
     5006 H6            6.856900000        14.099100000         9.587620000 H       829 pe       0.041986755
     5007 H8            5.291640000        13.483900000         9.029990000 H       829 pe       0.041986755
     5008 C1            6.751320000        13.684500000         7.465410000 C.3     830 pe      -0.084813245
     5009 C2            8.171030000        14.256000000         7.416460000 C.3     830 pe      -0.084813245
     5010 H4            6.063990000        14.424000000         7.057270000 H       830 pe       0.041986755
     5011 H5            6.686300000        12.772000000         6.873330000 H       830 pe       0.041986755
     5012 H6            8.785800000        13.737100000         8.148080000 H       830 pe       0.041986755
     5013 H8            8.130510000        15.312000000         7.679070000 H       830 pe       0.041986755
     5014 C1            8.818660000        14.101800000         6.034460000 C.3     831 pe      -0.084813245
     5015 C2           10.230000000        14.685000000         6.148190000 C.3     831 pe      -0.084813245
     5016 H4            8.246130000        14.647000000         5.284280000 H       831 pe       0.041986755
     5017 H5            8.869680000        13.045400000         5.771740000 H       831 pe       0.041986755
     5018 H6           10.707500000        14.235300000         7.007170000 H       831 pe       0.041986755
     5019 H8           10.147600000        15.749200000         6.344180000 H       831 pe       0.041986755
     5020 C1           11.153800000        14.377200000         4.958210000 C.3     832 pe      -0.084813245
     5021 C2           11.124400000        15.396500000         3.813280000 C.3     832 pe      -0.084813245
     5022 H4           10.905200000        13.396800000         4.553370000 H       832 pe       0.041986755
     5023 H5           12.175200000        14.329900000         5.329450000 H       832 pe       0.041986755
     5024 H6           10.157300000        15.332000000         3.314890000 H       832 pe       0.041986755
     5025 H8           11.896500000        15.112800000         3.098240000 H       832 pe       0.041986755
     5026 C1           11.360000000        16.863000000         4.208140000 C.3     833 pe      -0.084813245
     5027 C2           12.496500000        17.143000000         5.201060000 C.3     833 pe      -0.084813245
     5028 H4           10.441200000        17.249700000         4.630270000 H       833 pe       0.041986755
     5029 H5           11.586500000        17.390000000         3.283000000 H       833 pe       0.041986755
     5030 H6           13.439200000        16.864100000         4.730440000 H       833 pe       0.041986755
     5031 H8           12.373300000        16.558900000         6.103940000 H       833 pe       0.041986755
     5032 C1           12.569000000        18.630500000         5.591110000 C.3     834 pe      -0.084813245
     5033 C2           11.578400000        19.084300000         6.698140000 C.3     834 pe      -0.084813245
     5034 H4           12.392900000        19.234100000         4.705020000 H       834 pe       0.041986755
     5035 H5           13.596600000        18.797900000         5.903040000 H       834 pe       0.041986755
     5036 H6           11.135300000        18.224000000         7.182790000 H       834 pe       0.041986755
     5037 H8           10.774500000        19.644400000         6.227680000 H       834 pe       0.041986755
     5038 C1           12.245600000        20.011900000         7.740000000 C.3     835 pe      -0.084813245
     5039 C2           11.643500000        20.007400000         9.158870000 C.3     835 pe      -0.084813245
     5040 H4           12.177100000        21.033600000         7.374280000 H       835 pe       0.041986755
     5041 H5           13.287500000        19.740600000         7.822180000 H       835 pe       0.041986755
     5042 H6           11.567900000        19.003700000         9.554610000 H       835 pe       0.041986755
     5043 H8           10.645100000        20.442400000         9.115040000 H       835 pe       0.041986755
     5044 C1           12.505500000        20.840000000        10.129600000 C.3     836 pe      -0.084813245
     5045 C2           13.815300000        20.148800000        10.565800000 C.3     836 pe      -0.084813245
     5046 H4           11.914800000        21.064400000        11.017200000 H       836 pe       0.041986755
     5047 H5           12.759800000        21.781400000         9.644240000 H       836 pe       0.041986755
     5048 H6           14.563600000        20.908000000        10.757900000 H       836 pe       0.041986755
     5049 H8           14.191400000        19.495900000         9.785530000 H       836 pe       0.041986755
     5050 C1           13.676100000        19.338600000        11.853800000 C.3     837 pe      -0.084813245
     5051 C2           15.033900000        18.682400000        12.163400000 C.3     837 pe      -0.084813245
     5052 H4           12.907900000        18.584100000        11.721500000 H       837 pe       0.041986755
     5053 H5           13.396200000        20.008200000        12.666700000 H       837 pe       0.041986755
     5054 H6           15.712000000        19.421600000        12.566200000 H       837 pe       0.041986755
     5055 H8           15.479700000        18.295600000        11.249800000 H       837 pe       0.041986755
     5056 C1           14.955200000        17.516700000        13.148400000 C.3     838 pe      -0.084813245
     5057 C2           14.032200000        17.778000000        14.344800000 C.3     838 pe      -0.084813245
     5058 H4           15.964400000        17.322300000        13.507500000 H       838 pe       0.041986755
     5059 H5           14.591900000        16.651900000        12.599100000 H       838 pe       0.041986755
     5060 H6           13.001600000        17.589700000        14.046500000 H       838 pe       0.041986755
     5061 H8           14.128700000        18.814100000        14.666000000 H       838 pe       0.041986755
     5062 C1           14.357200000        16.890400000        15.551500000 C.3     839 pe      -0.084813245
     5063 C2           14.462800000        15.397400000        15.224200000 C.3     839 pe      -0.084813245
     5064 H4           13.523100000        16.976400000        16.238000000 H       839 pe       0.041986755
     5065 H5           15.236300000        17.262900000        16.065300000 H       839 pe       0.041986755
     5066 H6           13.922400000        15.194600000        14.306600000 H       839 pe       0.041986755
     5067 H8           13.946500000        14.899800000        16.037900000 H       839 pe       0.041986755
     5068 C1           15.885200000        14.805700000        15.224000000 C.3     840 pe      -0.084813245
     5069 C2           16.441500000        14.312600000        13.875800000 C.3     840 pe      -0.084813245
     5070 H4           15.848000000        13.938200000        15.875900000 H       840 pe       0.041986755
     5071 H5           16.572000000        15.515700000        15.661000000 H       840 pe       0.041986755
     5072 H6           15.870900000        14.720800000        13.049500000 H       840 pe       0.041986755
     5073 H8           16.350800000        13.227100000        13.856900000 H       840 pe       0.041986755
     5074 C1           17.924500000        14.716600000        13.742600000 C.3     841 pe      -0.084813245
     5075 C2           18.729000000        13.875300000        12.735100000 C.3     841 pe      -0.084813245
     5076 H4           18.406900000        14.570500000        14.703700000 H       841 pe       0.041986755
     5077 H5           17.997000000        15.773200000        13.487300000 H       841 pe       0.041986755
     5078 H6           18.318000000        12.869200000        12.657100000 H       841 pe       0.041986755
     5079 H8           19.742100000        13.789700000        13.128200000 H       841 pe       0.041986755
     5080 C1           18.846000000        14.503000000        11.337400000 C.3     842 pe      -0.084813245
     5081 C2           17.495600000        14.556600000        10.616300000 C.3     842 pe      -0.084813245
     5082 H4           19.533400000        13.888300000        10.756700000 H       842 pe       0.041986755
     5083 H5           19.259900000        15.508800000        11.414300000 H       842 pe       0.041986755
     5084 H6           16.907600000        15.370200000        11.034100000 H       842 pe       0.041986755
     5085 H8           16.972200000        13.613300000        10.768800000 H       842 pe       0.041986755
     5086 C1           17.689600000        14.792000000         9.111520000 C.3     843 pe      -0.084813245
     5087 C2           16.331900000        14.823200000         8.397950000 C.3     843 pe      -0.084813245
     5088 H4           18.278000000        13.976300000         8.693020000 H       843 pe       0.041986755
     5089 H5           18.218600000        15.730500000         8.944260000 H       843 pe       0.041986755
     5090 H6           15.662200000        14.098200000         8.857750000 H       843 pe       0.041986755
     5091 H8           16.478000000        14.547100000         7.353750000 H       843 pe       0.041986755
     5092 C1           15.721700000        16.230400000         8.442620000 C.3     844 pe      -0.084813245
     5093 C2           14.200300000        16.184500000         8.273530000 C.3     844 pe      -0.084813245
     5094 H4           16.142300000        16.809100000         7.620300000 H       844 pe       0.041986755
     5095 H5           15.965300000        16.733900000         9.374430000 H       844 pe       0.041986755
     5096 H6           13.931800000        15.394300000         7.572880000 H       844 pe       0.041986755
     5097 H8           13.897900000        17.148000000         7.872590000 H       844 pe       0.041986755
     5098 C1           13.468700000        15.979600000         9.605290000 C.3     845 pe      -0.084813245
     5099 C2           11.949800000        16.029100000         9.393400000 C.3     845 pe      -0.084813245
     5100 H4           13.756100000        16.782500000        10.273500000 H       845 pe       0.041986755
     5101 H5           13.745300000        15.025200000        10.049800000 H       845 pe       0.041986755
     5102 H6           11.646300000        15.167400000         8.815930000 H       845 pe       0.041986755
     5103 H8           11.682500000        16.918000000         8.854230000 H       845 pe       0.041986755
     5104 C1           11.215200000        16.002600000        10.730700000 C.3     846 pe      -0.084813245
     5105 C2            9.759870000        16.471800000        10.715600000 C.3     846 pe      -0.084813245
     5106 H4           11.774800000        16.558100000        11.478100000 H       846 pe       0.041986755
     5107 H5           11.166600000        14.972300000        11.006600000 H       846 pe       0.041986755
     5108 H6            9.292580000        16.183600000         9.775410000 H       846 pe       0.041986755
     5109 H8            9.721540000        17.555500000        10.822000000 H       846 pe       0.041986755
     5110 C1            8.993550000        15.800700000        11.873800000 C.3     847 pe      -0.084813245
     5111 C2            9.736820000        15.930100000        13.218600000 C.3     847 pe      -0.084813245
     5112 H4            8.851290000        14.742500000        11.651000000 H       847 pe       0.041986755
     5113 H5            8.013400000        16.270600000        11.944900000 H       847 pe       0.041986755
     5114 H6           10.111700000        16.938900000        13.333600000 H       847 pe       0.041986755
     5115 H8           10.584400000        15.248200000        13.245300000 H       847 pe       0.041986755
     5116 C1            8.864540000        15.537900000        14.411600000 C.3     848 pe      -0.084813245
     5117 C2            8.687550000        16.640100000        15.468600000 C.3     848 pe      -0.084813245
     5118 H4            9.397360000        14.723700000        14.897800000 H       848 pe       0.041986755
     5119 H5            7.897070000        15.168400000        14.075400000 H       848 pe       0.041986755
     5120 H6            9.629180000        17.152300000        15.639700000 H       848 pe       0.041986755
     5121 H8            8.414480000        16.145800000        16.398200000 H       848 pe       0.041986755
     5122 C1            7.553970000        17.634000000        15.170300000 C.3     849 pe      -0.084813245
     5123 C2            7.889990000        18.746200000        14.164900000 C.3     849 pe      -0.084813245
     5124 H4            7.260960000        18.101100000        16.110700000 H       849 pe       0.041986755
     5125 H5            6.692050000        17.082900000        14.796200000 H       849 pe       0.041986755
     5126 H6            6.960860000        19.283200000        13.975600000 H       849 pe       0.041986755
     5127 H8            8.223400000        18.336500000        13.217900000 H       849 pe       0.041986755
     5128 C1            8.893700000        19.780500000        14.694400000 C.3     850 pe      -0.084813245
     5129 C2           10.305800000        19.675700000        14.095400000 C.3     850 pe      -0.084813245
     5130 H4            8.956810000        19.743800000        15.780300000 H       850 pe       0.041986755
     5131 H5            8.482760000        20.740200000        14.412400000 H       850 pe       0.041986755
     5132 H6           10.865900000        20.578600000        14.333000000 H       850 pe       0.041986755
     5133 H7           10.837200000        18.831300000        14.525600000 H       850 pe       0.041986755
     5134 H8           10.255800000        19.570000000        13.011500000 H       850 pe       0.041986755
     5135 C1           35.523200000        44.250100000        17.211300000 C.3     851 pe      -0.084813245
     5136 C2           36.900800000        43.603800000        17.399300000 C.3     851 pe      -0.084813245
     5137 H3           35.329700000        44.952100000        18.022600000 H       851 pe       0.041986755
     5138 H4           35.504100000        44.785300000        16.262000000 H       851 pe       0.041986755
     5139 H5           34.749000000        43.482400000        17.203200000 H       851 pe       0.041986755
     5140 H6           37.662400000        44.381800000        17.363200000 H       851 pe       0.041986755
     5141 H8           37.068300000        42.892800000        16.590500000 H       851 pe       0.041986755
     5142 C1           36.955200000        42.879500000        18.751100000 C.3     852 pe      -0.084813245
     5143 C2           38.229600000        42.031500000        18.933200000 C.3     852 pe      -0.084813245
     5144 H4           36.104700000        42.201000000        18.802500000 H       852 pe       0.041986755
     5145 H5           36.857300000        43.607900000        19.553600000 H       852 pe       0.041986755
     5146 H6           38.319300000        41.370200000        18.072700000 H       852 pe       0.041986755
     5147 H8           38.113300000        41.399900000        19.810500000 H       852 pe       0.041986755
     5148 C1           39.557400000        42.801200000        19.065700000 C.3     853 pe      -0.084813245
     5149 C2           39.643600000        43.905000000        20.141500000 C.3     853 pe      -0.084813245
     5150 H4           39.780700000        43.262700000        18.104400000 H       853 pe       0.041986755
     5151 H5           40.339500000        42.069000000        19.261000000 H       853 pe       0.041986755
     5152 H6           39.061300000        44.759200000        19.797100000 H       853 pe       0.041986755
     5153 H8           40.686000000        44.208700000        20.201100000 H       853 pe       0.041986755
     5154 C1           39.173500000        43.561600000        21.567400000 C.3     854 pe      -0.084813245
     5155 C2           40.106200000        42.614700000        22.342700000 C.3     854 pe      -0.084813245
     5156 H4           38.190500000        43.113700000        21.519200000 H       854 pe       0.041986755
     5157 H5           39.078300000        44.495000000        22.120400000 H       854 pe       0.041986755
     5158 H6           40.564200000        41.907100000        21.654400000 H       854 pe       0.041986755
     5159 H8           39.510300000        42.055200000        23.058100000 H       854 pe       0.041986755
     5160 C1           41.216300000        43.358400000        23.103800000 C.3     855 pe      -0.084813245
     5161 C2           40.784700000        43.855100000        24.499300000 C.3     855 pe      -0.084813245
     5162 H4           41.539600000        44.216000000        22.515300000 H       855 pe       0.041986755
     5163 H5           42.067200000        42.686800000        23.210000000 H       855 pe       0.041986755
     5164 H6           39.765100000        44.236800000        24.457600000 H       855 pe       0.041986755
     5165 H8           41.450600000        44.676300000        24.762100000 H       855 pe       0.041986755
     5166 C1           40.898600000        42.757600000        25.580300000 C.3     856 pe      -0.084813245
     5167 C2           40.806300000        43.307500000        27.018200000 C.3     856 pe      -0.084813245
     5168 H4           41.875500000        42.285700000        25.494300000 H       856 pe       0.041986755
     5169 H5           40.136200000        41.998900000        25.418300000 H       856 pe       0.041986755
     5170 H6           41.313500000        44.269900000        27.063400000 H       856 pe       0.041986755
     5171 H8           41.313400000        42.624600000        27.698300000 H       856 pe       0.041986755
     5172 C1           39.376300000        43.533800000        27.513800000 C.3     857 pe      -0.084813245
     5173 C2           38.609400000        42.236400000        27.845200000 C.3     857 pe      -0.084813245
     5174 H4           38.873400000        44.094700000        26.736000000 H       857 pe       0.041986755
     5175 H5           39.429300000        44.148300000        28.410600000 H       857 pe       0.041986755
     5176 H6           39.284700000        41.525900000        28.321600000 H       857 pe       0.041986755
     5177 H8           38.235800000        41.791000000        26.929000000 H       857 pe       0.041986755
     5178 C1           37.429200000        42.446400000        28.811400000 C.3     858 pe      -0.084813245
     5179 C2           36.534800000        43.665100000        28.533500000 C.3     858 pe      -0.084813245
     5180 H4           37.837900000        42.573600000        29.813800000 H       858 pe       0.041986755
     5181 H5           36.814200000        41.549800000        28.831200000 H       858 pe       0.041986755
     5182 H6           37.071300000        44.542800000        28.883400000 H       858 pe       0.041986755
     5183 H8           35.649600000        43.560000000        29.160200000 H       858 pe       0.041986755
     5184 C1           36.037900000        43.878000000        27.086300000 C.3     859 pe      -0.084813245
     5185 C2           35.580400000        45.333300000        26.950800000 C.3     859 pe      -0.084813245
     5186 H4           35.181400000        43.230500000        26.909800000 H       859 pe       0.041986755
     5187 H5           36.775700000        43.669700000        26.318200000 H       859 pe       0.041986755
     5188 H6           35.105600000        45.611865000        27.886100000 H       859 pe       0.041986755
     5189 H8           34.851400000        45.384617300        26.143800000 H       859 pe       0.041986755
     5190 C1           36.728400000        46.311748000        26.641000000 C.3     860 pe      -0.084813245
     5191 C2           36.262400000        47.771920000        26.766600000 C.3     860 pe      -0.084813245
     5192 H4           37.051600000        46.145929000        25.613800000 H       860 pe       0.041986755
     5193 H5           37.573800000        46.141103000        27.301600000 H       860 pe       0.041986755
     5194 H6           35.187500000        47.794110000        26.878600000 H       860 pe       0.041986755
     5195 H8           36.518700000        48.283420000        25.839100000 H       860 pe       0.041986755
     5196 C1           36.912900000        48.544110000        27.930300000 C.3     861 pe      -0.084813245
     5197 C2           36.280800000        48.249220000        29.306200000 C.3     861 pe      -0.084813245
     5198 H4           36.834300000        49.611720000        27.724200000 H       861 pe       0.041986755
     5199 H5           37.974600000        48.302700000        27.969900000 H       861 pe       0.041986755
     5200 H6           36.996700000        48.559290000        30.066600000 H       861 pe       0.041986755
     5201 H8           36.124300000        47.178530000        29.418500000 H       861 pe       0.041986755
     5202 C1           34.974400000        49.036800000        29.554600000 C.3     862 pe      -0.084813245
     5203 C2           33.763200000        48.139130000        29.855500000 C.3     862 pe      -0.084813245
     5204 H4           34.730300000        49.628640000        28.673600000 H       862 pe       0.041986755
     5205 H5           35.128300000        49.718650000        30.390600000 H       862 pe       0.041986755
     5206 H6           33.824000000        47.272460000        29.211600000 H       862 pe       0.041986755
     5207 H8           32.860800000        48.694630000        29.606800000 H       862 pe       0.041986755
     5208 C1           33.686300000        47.707800000        31.331600000 C.3     863 pe      -0.084813245
     5209 C2           32.833100000        46.440080000        31.555200000 C.3     863 pe      -0.084813245
     5210 H4           33.298000000        48.531450000        31.930800000 H       863 pe       0.041986755
     5211 H5           34.695600000        47.480140000        31.672300000 H       863 pe       0.041986755
     5212 H6           33.347100000        45.851962000        32.315300000 H       863 pe       0.041986755
     5213 H8           32.792100000        45.838356000        30.649900000 H       863 pe       0.041986755
     5214 C1           31.401800000        46.666060000        32.080000000 C.3     864 pe      -0.084813245
     5215 C2           30.484300000        47.429570000        31.111200000 C.3     864 pe      -0.084813245
     5216 H4           31.449400000        47.185510000        33.034300000 H       864 pe       0.041986755
     5217 H5           30.965500000        45.682650000        32.254300000 H       864 pe       0.041986755
     5218 H6           30.512600000        46.942210000        30.141900000 H       864 pe       0.041986755
     5219 H8           30.837100000        48.454350000        31.009600000 H       864 pe       0.041986755
     5220 C1           29.033900000        47.449400000        31.628300000 C.3     865 pe      -0.084813245
     5221 C2           28.092200000        48.166670000        30.645400000 C.3     865 pe      -0.084813245
     5222 H4           29.008500000        47.989350000        32.572100000 H       865 pe       0.041986755
     5223 H5           28.678100000        46.435550000        31.811500000 H       865 pe       0.041986755
     5224 H6           28.600800000        49.031210000        30.219500000 H       865 pe       0.041986755
     5225 H8           27.223800000        48.521460000        31.200600000 H       865 pe       0.041986755
     5226 C1           27.589200000        47.236690000        29.528600000 C.3     866 pe      -0.084813245
     5227 C2           27.833300000        47.850850000        28.143600000 C.3     866 pe      -0.084813245
     5228 H4           26.522700000        47.077890000        29.670000000 H       866 pe       0.041986755
     5229 H5           28.094300000        46.274528000        29.583100000 H       866 pe       0.041986755
     5230 H6           28.898600000        48.019830000        28.034500000 H       866 pe       0.041986755
     5231 H8           27.321300000        48.805960000        28.058300000 H       866 pe       0.041986755
     5232 C1           27.343300000        46.903920000        27.036900000 C.3     867 pe      -0.084813245
     5233 C2           27.742200000        47.421830000        25.646700000 C.3     867 pe      -0.084813245
     5234 H4           26.258200000        46.822140000        27.080000000 H       867 pe       0.041986755
     5235 H5           27.770400000        45.918452000        27.197600000 H       867 pe       0.041986755
     5236 H6           28.557100000        48.134150000        25.735900000 H       867 pe       0.041986755
     5237 H8           26.888500000        47.951300000        25.238400000 H       867 pe       0.041986755
     5238 C1           28.168600000        46.254935000        24.729200000 C.3     868 pe      -0.084813245
     5239 C2           28.659700000        46.722520000        23.345800000 C.3     868 pe      -0.084813245
     5240 H4           27.327000000        45.578550000        24.594900000 H       868 pe       0.041986755
     5241 H5           28.965900000        45.705567000        25.212500000 H       868 pe       0.041986755
     5242 H6           29.105000000        47.711920000        23.412400000 H       868 pe       0.041986755
     5243 H8           27.803200000        46.775580000        22.681800000 H       868 pe       0.041986755
     5244 C1           29.651600000        45.760759000        22.676500000 C.3     869 pe      -0.084813245
     5245 C2           31.072200000        45.858284000        23.256500000 C.3     869 pe      -0.084813245
     5246 H4           29.668200000        45.996357000        21.618400000 H       869 pe       0.041986755
     5247 H5           29.285300000        44.749600000        22.783400000 H       869 pe       0.041986755
     5248 H6           31.078300000        45.347800000        24.214100000 H       869 pe       0.041986755
     5249 H8           31.343000000        46.891280000        23.421000000 H       869 pe       0.041986755
     5250 C1           32.150100000        45.193800000        22.387800000 C.3     870 pe      -0.084813245
     5251 C2           32.483700000        45.884030000        21.046500000 C.3     870 pe      -0.084813245
     5252 H4           31.826600000        44.178900000        22.186500000 H       870 pe       0.041986755
     5253 H5           33.064300000        45.134500000        22.978600000 H       870 pe       0.041986755
     5254 H6           31.612300000        45.927557000        20.395800000 H       870 pe       0.041986755
     5255 H8           33.229300000        45.262300000        20.551800000 H       870 pe       0.041986755
     5256 C1           33.100900000        47.284620000        21.205400000 C.3     871 pe      -0.084813245
     5257 C2           32.060100000        48.405680000        21.024600000 C.3     871 pe      -0.084813245
     5258 H4           33.858500000        47.408600000        20.431800000 H       871 pe       0.041986755
     5259 H5           33.591800000        47.345070000        22.170800000 H       871 pe       0.041986755
     5260 H6           31.112900000        48.121940000        21.468400000 H       871 pe       0.041986755
     5261 H8           31.901900000        48.525490000        19.953000000 H       871 pe       0.041986755
     5262 C1           32.505300000        49.771680000        21.585300000 C.3     872 pe      -0.084813245
     5263 C2           31.851200000        50.155730000        22.931700000 C.3     872 pe      -0.084813245
     5264 H4           32.190600000        50.521540000        20.859500000 H       872 pe       0.041986755
     5265 H5           33.591700000        49.815680000        21.661100000 H       872 pe       0.041986755
     5266 H6           30.806900000        49.847870000        22.931500000 H       872 pe       0.041986755
     5267 H8           31.868200000        51.242510000        23.008400000 H       872 pe       0.041986755
     5268 C1           32.611800000        49.601670000        24.154000000 C.3     873 pe      -0.084813245
     5269 C2           31.686200000        49.073970000        25.268700000 C.3     873 pe      -0.084813245
     5270 H4           33.231100000        50.398160000        24.565600000 H       873 pe       0.041986755
     5271 H5           33.272100000        48.809000000        23.827800000 H       873 pe       0.041986755
     5272 H6           30.785900000        48.661850000        24.830300000 H       873 pe       0.041986755
     5273 H8           31.402800000        49.900070000        25.920900000 H       873 pe       0.041986755
     5274 C1           32.393500000        47.985520000        26.101200000 C.3     874 pe      -0.084813245
     5275 C2           31.415500000        47.138680000        26.926000000 C.3     874 pe      -0.084813245
     5276 H4           33.067900000        48.488100000        26.786900000 H       874 pe       0.041986755
     5277 H5           32.956800000        47.316540000        25.453400000 H       874 pe       0.041986755
     5278 H6           30.499600000        47.018820000        26.368200000 H       874 pe       0.041986755
     5279 H8           31.212200000        47.666730000        27.854700000 H       874 pe       0.041986755
     5280 C1           31.944500000        45.727974000        27.234200000 C.3     875 pe      -0.084813245
     5281 C2           30.899700000        44.906600000        27.998900000 C.3     875 pe      -0.084813245
     5282 H4           32.822400000        45.797130000        27.857500000 H       875 pe       0.041986755
     5283 H5           32.212400000        45.215500000        26.312900000 H       875 pe       0.041986755
     5284 H6           30.028700000        45.528838000        28.180200000 H       875 pe       0.041986755
     5285 H8           31.314900000        44.594900000        28.956400000 H       875 pe       0.041986755
     5286 C1           30.482500000        43.662500000        27.207700000 C.3     876 pe      -0.084813245
     5287 C2           29.280800000        43.000500000        27.891000000 C.3     876 pe      -0.084813245
     5288 H4           31.311600000        42.956700000        27.158700000 H       876 pe       0.041986755
     5289 H5           30.209200000        43.968700000        26.207400000 H       876 pe       0.041986755
     5290 H6           28.551500000        43.759500000        28.140400000 H       876 pe       0.041986755
     5291 H8           29.623200000        42.538400000        28.816500000 H       876 pe       0.041986755
     5292 C1           28.607300000        41.919300000        27.032700000 C.3     877 pe      -0.084813245
     5293 C2           27.742100000        42.467800000        25.876700000 C.3     877 pe      -0.084813245
     5294 H4           27.939900000        41.360100000        27.688200000 H       877 pe       0.041986755
     5295 H5           29.371100000        41.232700000        26.671600000 H       877 pe       0.041986755
     5296 H6           27.479700000        43.508900000        26.052300000 H       877 pe       0.041986755
     5297 H8           26.823900000        41.886500000        25.860600000 H       877 pe       0.041986755
     5298 C1           28.430300000        42.331700000        24.509300000 C.3     878 pe      -0.084813245
     5299 C2           27.421900000        42.384400000        23.344200000 C.3     878 pe      -0.084813245
     5300 H4           28.941800000        41.379200000        24.491200000 H       878 pe       0.041986755
     5301 H5           29.158500000        43.125200000        24.401000000 H       878 pe       0.041986755
     5302 H6           26.877600000        43.327600000        23.388500000 H       878 pe       0.041986755
     5303 H8           26.714300000        41.575300000        23.487100000 H       878 pe       0.041986755
     5304 C1           28.002000000        42.231600000        21.918900000 C.3     879 pe      -0.084813245
     5305 C2           29.447900000        41.720400000        21.864500000 C.3     879 pe      -0.084813245
     5306 H4           27.954100000        43.199400000        21.420000000 H       879 pe       0.041986755
     5307 H5           27.369700000        41.538800000        21.375000000 H       879 pe       0.041986755
     5308 H6           29.538900000        40.786300000        22.416100000 H       879 pe       0.041986755
     5309 H8           30.068000000        42.492300000        22.306600000 H       879 pe       0.041986755
     5310 C1           29.956500000        41.439400000        20.446400000 C.3     880 pe      -0.084813245
     5311 C2           31.453400000        41.766500000        20.288100000 C.3     880 pe      -0.084813245
     5312 H4           29.402200000        42.055100000        19.745000000 H       880 pe       0.041986755
     5313 H5           29.785700000        40.389200000        20.208400000 H       880 pe       0.041986755
     5314 H6           31.565600000        42.848100000        20.271900000 H       880 pe       0.041986755
     5315 H8           31.785200000        41.380800000        19.324300000 H       880 pe       0.041986755
     5316 C1           32.350000000        41.160700000        21.386400000 C.3     881 pe      -0.084813245
     5317 C2           33.792100000        41.663600000        21.261800000 C.3     881 pe      -0.084813245
     5318 H4           32.325500000        40.075400000        21.301100000 H       881 pe       0.041986755
     5319 H5           32.018000000        41.434300000        22.383200000 H       881 pe       0.041986755
     5320 H6           33.814500000        42.749900000        21.192300000 H       881 pe       0.041986755
     5321 H8           34.237200000        41.239700000        20.366100000 H       881 pe       0.041986755
     5322 C1           34.556100000        41.228400000        22.519300000 C.3     882 pe      -0.084813245
     5323 C2           36.069500000        41.421200000        22.358100000 C.3     882 pe      -0.084813245
     5324 H4           34.333600000        40.184100000        22.707400000 H       882 pe       0.041986755
     5325 H5           34.216200000        41.822200000        23.368700000 H       882 pe       0.041986755
     5326 H6           36.354500000        42.365700000        22.820800000 H       882 pe       0.041986755
     5327 H8           36.302400000        41.464500000        21.300900000 H       882 pe       0.041986755
     5328 C1           36.891400000        40.271700000        22.963500000 C.3     883 pe      -0.084813245
     5329 C2           36.973000000        40.394900000        24.492300000 C.3     883 pe      -0.084813245
     5330 H4           37.901300000        40.313300000        22.560100000 H       883 pe       0.041986755
     5331 H5           36.460500000        39.320900000        22.663500000 H       883 pe       0.041986755
     5332 H6           36.140300000        40.998600000        24.835000000 H       883 pe       0.041986755
     5333 H8           37.895800000        40.913300000        24.740300000 H       883 pe       0.041986755
     5334 C1           36.978100000        39.014600000        25.178200000 C.3     884 pe      -0.084813245
     5335 C2           36.650600000        39.031100000        26.683100000 C.3     884 pe      -0.084813245
     5336 H4           37.970600000        38.582400000        25.053100000 H       884 pe       0.041986755
     5337 H5           36.272900000        38.347200000        24.701900000 H       884 pe       0.041986755
     5338 H6           37.474800000        39.511200000        27.205100000 H       884 pe       0.041986755
     5339 H8           36.613800000        37.997100000        27.024000000 H       884 pe       0.041986755
     5340 C1           35.339100000        39.729900000        27.108400000 C.3     885 pe      -0.084813245
     5341 C2           34.074700000        39.401900000        26.298600000 C.3     885 pe      -0.084813245
     5342 H4           35.482700000        40.803800000        27.047400000 H       885 pe       0.041986755
     5343 H5           35.150900000        39.482000000        28.152800000 H       885 pe       0.041986755
     5344 H6           34.228100000        39.654100000        25.255200000 H       885 pe       0.041986755
     5345 H8           33.266500000        40.026200000        26.679700000 H       885 pe       0.041986755
     5346 C1           33.656400000        37.934900000        26.438900000 C.3     886 pe      -0.084813245
     5347 C2           32.393000000        37.625100000        25.620700000 C.3     886 pe      -0.084813245
     5348 H4           33.426600000        37.745000000        27.487000000 H       886 pe       0.041986755
     5349 H5           34.466100000        37.272400000        26.146900000 H       886 pe       0.041986755
     5350 H6           31.600800000        38.286400000        25.966400000 H       886 pe       0.041986755
     5351 H8           32.096000000        36.602500000        25.844800000 H       886 pe       0.041986755
     5352 C1           32.495900000        37.782700000        24.090400000 C.3     887 pe      -0.084813245
     5353 C2           33.759200000        37.166400000        23.457300000 C.3     887 pe      -0.084813245
     5354 H4           32.451500000        38.839700000        23.831700000 H       887 pe       0.041986755
     5355 H5           31.612600000        37.305700000        23.666800000 H       887 pe       0.041986755
     5356 H6           34.126600000        36.333500000        24.051500000 H       887 pe       0.041986755
     5357 H8           34.524800000        37.925500000        23.380600000 H       887 pe       0.041986755
     5358 C1           33.447300000        36.665800000        22.049800000 C.3     888 pe      -0.084813245
     5359 C2           34.656100000        36.046000000        21.329200000 C.3     888 pe      -0.084813245
     5360 H4           33.038800000        37.490500000        21.470200000 H       888 pe       0.041986755
     5361 H5           32.702500000        35.887100000        22.151900000 H       888 pe       0.041986755
     5362 H6           34.329000000        35.170300000        20.768500000 H       888 pe       0.041986755
     5363 H8           35.392400000        35.727500000        22.066500000 H       888 pe       0.041986755
     5364 C1           35.319700000        37.029600000        20.359600000 C.3     889 pe      -0.084813245
     5365 C2           34.507400000        37.229800000        19.067700000 C.3     889 pe      -0.084813245
     5366 H4           36.297900000        36.635600000        20.084500000 H       889 pe       0.041986755
     5367 H5           35.459700000        37.976900000        20.875100000 H       889 pe       0.041986755
     5368 H6           33.512100000        36.809300000        19.174200000 H       889 pe       0.041986755
     5369 H8           35.011000000        36.709400000        18.258400000 H       889 pe       0.041986755
     5370 C1           34.386200000        38.734900000        18.784700000 C.3     890 pe      -0.084813245
     5371 C2           33.830400000        39.116100000        17.401800000 C.3     890 pe      -0.084813245
     5372 H4           35.348000000        39.221600000        18.934600000 H       890 pe       0.041986755
     5373 H5           33.685600000        39.125200000        19.516300000 H       890 pe       0.041986755
     5374 H6           33.673800000        40.195000000        17.389900000 H       890 pe       0.041986755
     5375 H8           32.862200000        38.637800000        17.269300000 H       890 pe       0.041986755
     5376 C1           34.710400000        38.743800000        16.197400000 C.3     891 pe      -0.084813245
     5377 C2           36.117900000        39.365500000        16.216100000 C.3     891 pe      -0.084813245
     5378 H4           34.204000000        39.112700000        15.305800000 H       891 pe       0.041986755
     5379 H5           34.765600000        37.667400000        16.122900000 H       891 pe       0.041986755
     5380 H6           36.119400000        40.211800000        16.901100000 H       891 pe       0.041986755
     5381 H8           36.334400000        39.758200000        15.223600000 H       891 pe       0.041986755
     5382 C1           37.240400000        38.394100000        16.638800000 C.3     892 pe      -0.084813245
     5383 C2           37.753900000        37.464600000        15.518500000 C.3     892 pe      -0.084813245
     5384 H4           36.941300000        37.823500000        17.510000000 H       892 pe       0.041986755
     5385 H5           38.087100000        39.012400000        16.934000000 H       892 pe       0.041986755
     5386 H6           38.836000000        37.394100000        15.623900000 H       892 pe       0.041986755
     5387 H8           37.548400000        37.919600000        14.550700000 H       892 pe       0.041986755
     5388 C1           37.193600000        36.029000000        15.490500000 C.3     893 pe      -0.084813245
     5389 C2           37.656200000        35.147500000        16.666400000 C.3     893 pe      -0.084813245
     5390 H4           37.558300000        35.579900000        14.567300000 H       893 pe       0.041986755
     5391 H5           36.111400000        36.043200000        15.444300000 H       893 pe       0.041986755
     5392 H6           37.254900000        35.509700000        17.610900000 H       893 pe       0.041986755
     5393 H8           38.744700000        35.171400000        16.713400000 H       893 pe       0.041986755
     5394 C1           37.220800000        33.686800000        16.466700000 C.3     894 pe      -0.084813245
     5395 C2           35.796100000        33.419800000        16.982000000 C.3     894 pe      -0.084813245
     5396 H4           37.904300000        33.047400000        17.025900000 H       894 pe       0.041986755
     5397 H5           37.295000000        33.430500000        15.411000000 H       894 pe       0.041986755
     5398 H6           35.122900000        34.233900000        16.720600000 H       894 pe       0.041986755
     5399 H8           35.834600000        33.347100000        18.069200000 H       894 pe       0.041986755
     5400 C1           35.263300000        32.087000000        16.426000000 C.3     895 pe      -0.084813245
     5401 C2           34.138600000        32.246700000        15.388000000 C.3     895 pe      -0.084813245
     5402 H4           34.852600000        31.523200000        17.263800000 H       895 pe       0.041986755
     5403 H5           36.075700000        31.503200000        15.994300000 H       895 pe       0.041986755
     5404 H6           33.304500000        32.746700000        15.864700000 H       895 pe       0.041986755
     5405 H8           33.814000000        31.246500000        15.101100000 H       895 pe       0.041986755
     5406 C1           34.547900000        33.007100000        14.113100000 C.3     896 pe      -0.084813245
     5407 C2           33.366400000        33.119700000        13.130600000 C.3     896 pe      -0.084813245
     5408 H4           35.342900000        32.446500000        13.621900000 H       896 pe       0.041986755
     5409 H5           34.926900000        33.994500000        14.354400000 H       896 pe       0.041986755
     5410 H6           32.510400000        32.560300000        13.505800000 H       896 pe       0.041986755
     5411 H8           33.686900000        32.645600000        12.203300000 H       896 pe       0.041986755
     5412 C1           32.936700000        34.558500000        12.768600000 C.3     897 pe      -0.084813245
     5413 C2           31.872000000        35.172300000        13.700100000 C.3     897 pe      -0.084813245
     5414 H4           32.475900000        34.499300000        11.783000000 H       897 pe       0.041986755
     5415 H5           33.802200000        35.215400000        12.679200000 H       897 pe       0.041986755
     5416 H6           31.188900000        34.398500000        14.046300000 H       897 pe       0.041986755
     5417 H8           31.295400000        35.885900000        13.112300000 H       897 pe       0.041986755
     5418 C1           32.470300000        35.949400000        14.882600000 C.3     898 pe      -0.084813245
     5419 C2           31.905600000        35.505100000        16.234300000 C.3     898 pe      -0.084813245
     5420 H4           32.280700000        37.013200000        14.743700000 H       898 pe       0.041986755
     5421 H5           33.544400000        35.797800000        14.919200000 H       898 pe       0.041986755
     5422 H6           32.566800000        35.893900000        17.006000000 H       898 pe       0.041986755
     5423 H8           31.908300000        34.421600000        16.289800000 H       898 pe       0.041986755
     5424 C1           30.478900000        35.990200000        16.509200000 C.3     899 pe      -0.084813245
     5425 C2           30.180000000        35.650100000        17.971600000 C.3     899 pe      -0.084813245
     5426 H4           29.779300000        35.460600000        15.864800000 H       899 pe       0.041986755
     5427 H5           30.388700000        37.063600000        16.342400000 H       899 pe       0.041986755
     5428 H6           30.834800000        34.843600000        18.296700000 H       899 pe       0.041986755
     5429 H8           29.165100000        35.302600000        18.089700000 H       899 pe       0.041986755
     5430 C1           30.359500000        36.870500000        18.870400000 C.3     900 pe      -0.084813245
     5431 C2           30.573400000        36.336300000        20.274400000 C.3     900 pe      -0.084813245
     5432 H4           29.469500000        37.492800000        18.840300000 H       900 pe       0.041986755
     5433 H5           31.226600000        37.455200000        18.577900000 H       900 pe       0.041986755
     5434 H6           30.614300000        37.159900000        20.984300000 H       900 pe       0.041986755
     5435 H7           29.773400000        35.652100000        20.529800000 H       900 pe       0.041986755
     5436 H8           31.507400000        35.789200000        20.279400000 H       900 pe       0.041986755
     5437 C1           30.620200000        26.465200000        41.122900000 C.3     901 pe      -0.084813245
     5438 C2           31.446100000        26.010300000        39.914800000 C.3     901 pe      -0.084813245
     5439 H3           29.559400000        26.425100000        40.877200000 H       901 pe       0.041986755
     5440 H4           30.814800000        25.832200000        41.988000000 H       901 pe       0.041986755
     5441 H5           30.904400000        27.483700000        41.376500000 H       901 pe       0.041986755
     5442 H6           32.497500000        26.172600000        40.144800000 H       901 pe       0.041986755
     5443 H8           31.179400000        26.613300000        39.047400000 H       901 pe       0.041986755
     5444 C1           31.155000000        24.533900000        39.601100000 C.3     902 pe      -0.084813245
     5445 C2           32.364400000        23.796100000        38.994600000 C.3     902 pe      -0.084813245
     5446 H4           30.339200000        24.503000000        38.879500000 H       902 pe       0.041986755
     5447 H5           30.821500000        24.026200000        40.503700000 H       902 pe       0.041986755
     5448 H6           33.203400000        24.471200000        38.831900000 H       902 pe       0.041986755
     5449 H8           32.051400000        23.423300000        38.019500000 H       902 pe       0.041986755
     5450 C1           32.818000000        22.577200000        39.823800000 C.3     903 pe      -0.084813245
     5451 C2           33.858400000        22.885900000        40.917100000 C.3     903 pe      -0.084813245
     5452 H4           33.296900000        21.889700000        39.127000000 H       903 pe       0.041986755
     5453 H5           31.958300000        22.065900000        40.253400000 H       903 pe       0.041986755
     5454 H6           34.657000000        23.455200000        40.458000000 H       903 pe       0.041986755
     5455 H8           34.271600000        21.942300000        41.266900000 H       903 pe       0.041986755
     5456 C1           33.291000000        23.644400000        42.130300000 C.3     904 pe      -0.084813245
     5457 C2           34.298400000        23.901600000        43.265000000 C.3     904 pe      -0.084813245
     5458 H4           32.460800000        23.071400000        42.542200000 H       904 pe       0.041986755
     5459 H5           32.916300000        24.606100000        41.814600000 H       904 pe       0.041986755
     5460 H6           34.563900000        22.954100000        43.725700000 H       904 pe       0.041986755
     5461 H8           33.803000000        24.513400000        44.018700000 H       904 pe       0.041986755
     5462 C1           35.605200000        24.601000000        42.858400000 C.3     905 pe      -0.084813245
     5463 C2           35.405800000        25.905800000        42.064600000 C.3     905 pe      -0.084813245
     5464 H4           36.206600000        23.896500000        42.290700000 H       905 pe       0.041986755
     5465 H5           36.140100000        24.841100000        43.773500000 H       905 pe       0.041986755
     5466 H6           34.605200000        26.474300000        42.537300000 H       905 pe       0.041986755
     5467 H8           35.105100000        25.697400000        41.041500000 H       905 pe       0.041986755
     5468 C1           36.650500000        26.812100000        42.040900000 C.3     906 pe      -0.084813245
     5469 C2           38.039400000        26.157500000        41.851800000 C.3     906 pe      -0.084813245
     5470 H4           36.666400000        27.329400000        42.995500000 H       906 pe       0.041986755
     5471 H5           36.506400000        27.566800000        41.268800000 H       906 pe       0.041986755
     5472 H6           38.187000000        25.309100000        42.514400000 H       906 pe       0.041986755
     5473 H8           38.761400000        26.913100000        42.143300000 H       906 pe       0.041986755
     5474 C1           38.431400000        25.806700000        40.409500000 C.3     907 pe      -0.084813245
     5475 C2           37.840700000        24.519000000        39.840800000 C.3     907 pe      -0.084813245
     5476 H4           39.512200000        25.700700000        40.368900000 H       907 pe       0.041986755
     5477 H5           38.141100000        26.632800000        39.762400000 H       907 pe       0.041986755
     5478 H6           37.989900000        24.569400000        38.772100000 H       907 pe       0.041986755
     5479 H8           36.780000000        24.488500000        40.037500000 H       907 pe       0.041986755
     5480 C1           38.517100000        23.237100000        40.345400000 C.3     908 pe      -0.084813245
     5481 C2           37.778500000        21.992900000        39.824400000 C.3     908 pe      -0.084813245
     5482 H4           38.493800000        23.211900000        41.432700000 H       908 pe       0.041986755
     5483 H5           39.557400000        23.212200000        40.019300000 H       908 pe       0.041986755
     5484 H6           36.719300000        22.064500000        40.058200000 H       908 pe       0.041986755
     5485 H8           38.180800000        21.129200000        40.349300000 H       908 pe       0.041986755
     5486 C1           37.987000000        21.740700000        38.322500000 C.3     909 pe      -0.084813245
     5487 C2           36.675000000        21.595800000        37.514400000 C.3     909 pe      -0.084813245
     5488 H4           38.520800000        20.795800000        38.257800000 H       909 pe       0.041986755
     5489 H5           38.634300000        22.497400000        37.889500000 H       909 pe       0.041986755
     5490 H6           36.029800000        20.884700000        38.030100000 H       909 pe       0.041986755
     5491 H8           36.916400000        21.180400000        36.538100000 H       909 pe       0.041986755
     5492 C1           35.878900000        22.891300000        37.266600000 C.3     910 pe      -0.084813245
     5493 C2           36.537000000        23.765200000        36.186300000 C.3     910 pe      -0.084813245
     5494 H4           35.764300000        23.437200000        38.194700000 H       910 pe       0.041986755
     5495 H5           34.885400000        22.618400000        36.912000000 H       910 pe       0.041986755
     5496 H6           36.136600000        23.475900000        35.214500000 H       910 pe       0.041986755
     5497 H8           37.597900000        23.574700000        36.178400000 H       910 pe       0.041986755
     5498 C1           36.295500000        25.270000000        36.395700000 C.3     911 pe      -0.084813245
     5499 C2           37.271500000        26.117400000        35.558300000 C.3     911 pe      -0.084813245
     5500 H4           36.372300000        25.549500000        37.442400000 H       911 pe       0.041986755
     5501 H5           35.281600000        25.491200000        36.063000000 H       911 pe       0.041986755
     5502 H6           36.717500000        27.001000000        35.243000000 H       911 pe       0.041986755
     5503 H8           37.543400000        25.570600000        34.666300000 H       911 pe       0.041986755
     5504 C1           38.531200000        26.635900000        36.289800000 C.3     912 pe      -0.084813245
     5505 C2           39.725700000        25.684300000        36.505900000 C.3     912 pe      -0.084813245
     5506 H4           38.230000000        26.986000000        37.274700000 H       912 pe       0.041986755
     5507 H5           38.895000000        27.501200000        35.737800000 H       912 pe       0.041986755
     5508 H6           39.411000000        24.731000000        36.912500000 H       912 pe       0.041986755
     5509 H8           40.335800000        26.161200000        37.269100000 H       912 pe       0.041986755
     5510 C1           40.660600000        25.471100000        35.300600000 C.3     913 pe      -0.084813245
     5511 C2           40.216000000        24.343200000        34.354700000 C.3     913 pe      -0.084813245
     5512 H4           41.629100000        25.175900000        35.704200000 H       913 pe       0.041986755
     5513 H5           40.803300000        26.404500000        34.762700000 H       913 pe       0.041986755
     5514 H6           39.433000000        23.756600000        34.821200000 H       913 pe       0.041986755
     5515 H8           41.073300000        23.692200000        34.184300000 H       913 pe       0.041986755
     5516 C1           39.734900000        24.867300000        32.994100000 C.3     914 pe      -0.084813245
     5517 C2           38.698400000        23.944000000        32.335100000 C.3     914 pe      -0.084813245
     5518 H4           40.595200000        24.979100000        32.335200000 H       914 pe       0.041986755
     5519 H5           39.266600000        25.840100000        33.113800000 H       914 pe       0.041986755
     5520 H6           38.480100000        24.365100000        31.354700000 H       914 pe       0.041986755
     5521 H8           37.778600000        23.938400000        32.918500000 H       914 pe       0.041986755
     5522 C1           39.195100000        22.497100000        32.195700000 C.3     915 pe      -0.084813245
     5523 C2           38.384700000        21.733900000        31.135500000 C.3     915 pe      -0.084813245
     5524 H4           39.059700000        21.985000000        33.147500000 H       915 pe       0.041986755
     5525 H5           40.254600000        22.488900000        31.950800000 H       915 pe       0.041986755
     5526 H6           37.625800000        22.368600000        30.680500000 H       915 pe       0.041986755
     5527 H8           37.869800000        20.924500000        31.651100000 H       915 pe       0.041986755
     5528 C1           39.261300000        21.098400000        30.043200000 C.3     916 pe      -0.084813245
     5529 C2           39.632100000        22.026500000        28.866100000 C.3     916 pe      -0.084813245
     5530 H4           38.672000000        20.289100000        29.613900000 H       916 pe       0.041986755
     5531 H5           40.144400000        20.649100000        30.489400000 H       916 pe       0.041986755
     5532 H6           38.721500000        22.513400000        28.517500000 H       916 pe       0.041986755
     5533 H8           40.001400000        21.397100000        28.057200000 H       916 pe       0.041986755
     5534 C1           40.685400000        23.122800000        29.118200000 C.3     917 pe      -0.084813245
     5535 C2           42.108200000        22.577200000        29.343500000 C.3     917 pe      -0.084813245
     5536 H4           40.386300000        23.750500000        29.950600000 H       917 pe       0.041986755
     5537 H5           40.704600000        23.745100000        28.224100000 H       917 pe       0.041986755
     5538 H6           42.520500000        22.252300000        28.388600000 H       917 pe       0.041986755
     5539 H8           42.081500000        21.723400000        30.015000000 H       917 pe       0.041986755
     5540 C1           43.050200000        23.610600000        29.983300000 C.3     918 pe      -0.084813245
     5541 C2           43.259200000        24.858900000        29.112800000 C.3     918 pe      -0.084813245
     5542 H4           44.016400000        23.129100000        30.136100000 H       918 pe       0.041986755
     5543 H5           42.649300000        23.903900000        30.953900000 H       918 pe       0.041986755
     5544 H6           42.314500000        25.382900000        28.991300000 H       918 pe       0.041986755
     5545 H8           43.619500000        24.559100000        28.129300000 H       918 pe       0.041986755
     5546 C1           44.302400000        25.789100000        29.756100000 C.3     919 pe      -0.084813245
     5547 C2           43.854200000        27.258800000        29.752300000 C.3     919 pe      -0.084813245
     5548 H4           45.227100000        25.707200000        29.185600000 H       919 pe       0.041986755
     5549 H5           44.502800000        25.480100000        30.781500000 H       919 pe       0.041986755
     5550 H6           43.431100000        27.507900000        28.778800000 H       919 pe       0.041986755
     5551 H8           44.726400000        27.887300000        29.929700000 H       919 pe       0.041986755
     5552 C1           42.827400000        27.516800000        30.864600000 C.3     920 pe      -0.084813245
     5553 C2           42.376900000        28.985200000        30.896500000 C.3     920 pe      -0.084813245
     5554 H4           43.276700000        27.277500000        31.824800000 H       920 pe       0.041986755
     5555 H5           41.962400000        26.874400000        30.718300000 H       920 pe       0.041986755
     5556 H6           42.609500000        29.457400000        29.942800000 H       920 pe       0.041986755
     5557 H8           42.916400000        29.510200000        31.685000000 H       920 pe       0.041986755
     5558 C1           40.861200000        29.104800000        31.126600000 C.3     921 pe      -0.084813245
     5559 C2           40.420100000        28.616600000        32.517500000 C.3     921 pe      -0.084813245
     5560 H4           40.339800000        28.519800000        30.369200000 H       921 pe       0.041986755
     5561 H5           40.576200000        30.144700000        30.993600000 H       921 pe       0.041986755
     5562 H6           41.105600000        27.853800000        32.873700000 H       921 pe       0.041986755
     5563 H8           39.432900000        28.164900000        32.435500000 H       921 pe       0.041986755
     5564 C1           40.393600000        29.735300000        33.566800000 C.3     922 pe      -0.084813245
     5565 C2           39.125000000        30.601300000        33.477900000 C.3     922 pe      -0.084813245
     5566 H4           41.292300000        30.339100000        33.469200000 H       922 pe       0.041986755
     5567 H5           40.403600000        29.265300000        34.549800000 H       922 pe       0.041986755
     5568 H6           38.654900000        30.607000000        34.456600000 H       922 pe       0.041986755
     5569 H8           38.427500000        30.154100000        32.776600000 H       922 pe       0.041986755
     5570 C1           39.431300000        32.047400000        33.048500000 C.3     923 pe      -0.084813245
     5571 C2           38.298100000        33.040800000        33.347900000 C.3     923 pe      -0.084813245
     5572 H4           39.654500000        32.075100000        31.984100000 H       923 pe       0.041986755
     5573 H5           40.300600000        32.408300000        33.594900000 H       923 pe       0.041986755
     5574 H6           38.537800000        33.984800000        32.859000000 H       923 pe       0.041986755
     5575 H8           38.277600000        33.215800000        34.423200000 H       923 pe       0.041986755
     5576 C1           36.885900000        32.612500000        32.921900000 C.3     924 pe      -0.084813245
     5577 C2           36.741200000        32.261700000        31.428300000 C.3     924 pe      -0.084813245
     5578 H4           36.226300000        33.450500000        33.145600000 H       924 pe       0.041986755
     5579 H5           36.578400000        31.763700000        33.530800000 H       924 pe       0.041986755
     5580 H6           37.049700000        31.233200000        31.251000000 H       924 pe       0.041986755
     5581 H8           37.375400000        32.923900000        30.839400000 H       924 pe       0.041986755
     5582 C1           35.292400000        32.427500000        30.938100000 C.3     925 pe      -0.084813245
     5583 C2           34.302300000        31.537200000        31.715500000 C.3     925 pe      -0.084813245
     5584 H4           35.259100000        32.148700000        29.884700000 H       925 pe       0.041986755
     5585 H5           35.020200000        33.476800000        31.025900000 H       925 pe       0.041986755
     5586 H6           34.377900000        31.726500000        32.777000000 H       925 pe       0.041986755
     5587 H8           34.571300000        30.496200000        31.537300000 H       925 pe       0.041986755
     5588 C1           32.835400000        31.729800000        31.292300000 C.3     926 pe      -0.084813245
     5589 C2           32.172000000        33.036700000        31.778300000 C.3     926 pe      -0.084813245
     5590 H4           32.258300000        30.880800000        31.657700000 H       926 pe       0.041986755
     5591 H5           32.793700000        31.719000000        30.204100000 H       926 pe       0.041986755
     5592 H6           31.400600000        33.273900000        31.046200000 H       926 pe       0.041986755
     5593 H8           32.881000000        33.861000000        31.781300000 H       926 pe       0.041986755
     5594 C1           31.456500000        32.963800000        33.142300000 C.3     927 pe      -0.084813245
     5595 C2           32.388800000        33.032100000        34.364800000 C.3     927 pe      -0.084813245
     5596 H4           30.830300000        32.074300000        33.185400000 H       927 pe       0.041986755
     5597 H5           30.801300000        33.832600000        33.200900000 H       927 pe       0.041986755
     5598 H6           31.976500000        33.734500000        35.089500000 H       927 pe       0.041986755
     5599 H8           33.365400000        33.410400000        34.067900000 H       927 pe       0.041986755
     5600 C1           32.560000000        31.659700000        35.032900000 C.3     928 pe      -0.084813245
     5601 C2           31.354300000        31.278000000        35.909700000 C.3     928 pe      -0.084813245
     5602 H4           33.443900000        31.710700000        35.665700000 H       928 pe       0.041986755
     5603 H5           32.726100000        30.901400000        34.271300000 H       928 pe       0.041986755
     5604 H6           30.576700000        32.032600000        35.812200000 H       928 pe       0.041986755
     5605 H8           31.680800000        31.250800000        36.944300000 H       928 pe       0.041986755
     5606 C1           30.785600000        29.902100000        35.520200000 C.3     929 pe      -0.084813245
     5607 C2           29.906600000        29.265500000        36.610100000 C.3     929 pe      -0.084813245
     5608 H4           31.610100000        29.210500000        35.345900000 H       929 pe       0.041986755
     5609 H5           30.208000000        29.997700000        34.601100000 H       929 pe       0.041986755
     5610 H6           30.531900000        29.032000000        37.468500000 H       929 pe       0.041986755
     5611 H8           29.525200000        28.325100000        36.212700000 H       929 pe       0.041986755
     5612 C1           28.695800000        30.114400000        37.043400000 C.3     930 pe      -0.084813245
     5613 C2           28.805400000        30.578600000        38.506500000 C.3     930 pe      -0.084813245
     5614 H4           27.794700000        29.510800000        36.936000000 H       930 pe       0.041986755
     5615 H5           28.589200000        30.983100000        36.397400000 H       930 pe       0.041986755
     5616 H6           28.150400000        31.438100000        38.647000000 H       930 pe       0.041986755
     5617 H8           29.827800000        30.881700000        38.727600000 H       930 pe       0.041986755
     5618 C1           28.353700000        29.458200000        39.457700000 C.3     931 pe      -0.084813245
     5619 C2           28.903600000        29.617000000        40.882500000 C.3     931 pe      -0.084813245
     5620 H4           28.709600000        28.499900000        39.081400000 H       931 pe       0.041986755
     5621 H5           27.264500000        29.429600000        39.487800000 H       931 pe       0.041986755
     5622 H6           29.989700000        29.629200000        40.836400000 H       931 pe       0.041986755
     5623 H8           28.586700000        28.741600000        41.446800000 H       931 pe       0.041986755
     5624 C1           28.418000000        30.883700000        41.606200000 C.3     932 pe      -0.084813245
     5625 C2           28.312900000        30.668400000        43.127400000 C.3     932 pe      -0.084813245
     5626 H4           27.424800000        31.142700000        41.240900000 H       932 pe       0.041986755
     5627 H5           29.098100000        31.709700000        41.396500000 H       932 pe       0.041986755
     5628 H6           27.701000000        29.786800000        43.317400000 H       932 pe       0.041986755
     5629 H8           27.801600000        31.529300000        43.557500000 H       932 pe       0.041986755
     5630 C1           29.673700000        30.531700000        43.834500000 C.3     933 pe      -0.084813245
     5631 C2           29.603300000        29.419100000        44.893000000 C.3     933 pe      -0.084813245
     5632 H4           29.910300000        31.482000000        44.312500000 H       933 pe       0.041986755
     5633 H5           30.450400000        30.291700000        43.114000000 H       933 pe       0.041986755
     5634 H6           29.547800000        28.462400000        44.377700000 H       933 pe       0.041986755
     5635 H8           28.696100000        29.557400000        45.481489000 H       933 pe       0.041986755
     5636 C1           30.782000000        29.377900000        45.882595000 C.3     934 pe      -0.084813245
     5637 C2           32.101900000        28.909100000        45.248300000 C.3     934 pe      -0.084813245
     5638 H4           30.526800000        28.655200000        46.656470000 H       934 pe       0.041986755
     5639 H5           30.903400000        30.345700000        46.367150000 H       934 pe       0.041986755
     5640 H6           31.898700000        28.220400000        44.429300000 H       934 pe       0.041986755
     5641 H8           32.674800000        28.374800000        46.006435000 H       934 pe       0.041986755
     5642 C1           32.953000000        30.091900000        44.770000000 C.3     935 pe      -0.084813245
     5643 C2           33.547300000        29.832000000        43.383100000 C.3     935 pe      -0.084813245
     5644 H4           33.761000000        30.242700000        45.481985000 H       935 pe       0.041986755
     5645 H5           32.356800000        31.000100000        44.729200000 H       935 pe       0.041986755
     5646 H6           32.760700000        29.537300000        42.695800000 H       935 pe       0.041986755
     5647 H8           34.278300000        29.028700000        43.442600000 H       935 pe       0.041986755
     5648 C1           34.203800000        31.135500000        42.907400000 C.3     936 pe      -0.084813245
     5649 C2           34.945300000        30.978200000        41.574900000 C.3     936 pe      -0.084813245
     5650 H4           34.932200000        31.443900000        43.651300000 H       936 pe       0.041986755
     5651 H5           33.449000000        31.916400000        42.825900000 H       936 pe       0.041986755
     5652 H6           35.204700000        29.936000000        41.413400000 H       936 pe       0.041986755
     5653 H8           35.875900000        31.536600000        41.653000000 H       936 pe       0.041986755
     5654 C1           34.162800000        31.560400000        40.383300000 C.3     937 pe      -0.084813245
     5655 C2           32.937400000        30.747700000        39.942200000 C.3     937 pe      -0.084813245
     5656 H4           34.840700000        31.668700000        39.544200000 H       937 pe       0.041986755
     5657 H5           33.812700000        32.558700000        40.635500000 H       937 pe       0.041986755
     5658 H6           32.410800000        31.336900000        39.195700000 H       937 pe       0.041986755
     5659 H8           32.260100000        30.637400000        40.782400000 H       937 pe       0.041986755
     5660 C1           33.243700000        29.357300000        39.352800000 C.3     938 pe      -0.084813245
     5661 C2           34.008700000        29.434000000        38.021300000 C.3     938 pe      -0.084813245
     5662 H4           32.284000000        28.889100000        39.150100000 H       938 pe       0.041986755
     5663 H5           33.770900000        28.726900000        40.066100000 H       938 pe       0.041986755
     5664 H6           33.903600000        30.431300000        37.611600000 H       938 pe       0.041986755
     5665 H8           33.556200000        28.727300000        37.326000000 H       938 pe       0.041986755
     5666 C1           35.498700000        29.084100000        38.152900000 C.3     939 pe      -0.084813245
     5667 C2           36.323300000        29.691800000        36.999200000 C.3     939 pe      -0.084813245
     5668 H4           35.587100000        27.999600000        38.101900000 H       939 pe       0.041986755
     5669 H5           35.888900000        29.401100000        39.113000000 H       939 pe       0.041986755
     5670 H6           35.750200000        29.575700000        36.079300000 H       939 pe       0.041986755
     5671 H8           37.232000000        29.114100000        36.888700000 H       939 pe       0.041986755
     5672 C1           36.712900000        31.180900000        37.131100000 C.3     940 pe      -0.084813245
     5673 C2           37.633900000        31.551100000        38.309900000 C.3     940 pe      -0.084813245
     5674 H4           35.807000000        31.777200000        37.217600000 H       940 pe       0.041986755
     5675 H5           37.209400000        31.480500000        36.211600000 H       940 pe       0.041986755
     5676 H6           37.193300000        31.214700000        39.242600000 H       940 pe       0.041986755
     5677 H8           37.677400000        32.631300000        38.367600000 H       940 pe       0.041986755
     5678 C1           39.066400000        30.993100000        38.268500000 C.3     941 pe      -0.084813245
     5679 C2           40.076900000        31.640800000        37.299000000 C.3     941 pe      -0.084813245
     5680 H4           39.039600000        29.924700000        38.067600000 H       941 pe       0.041986755
     5681 H5           39.455700000        31.113300000        39.268600000 H       941 pe       0.041986755
     5682 H6           39.851700000        31.291900000        36.298500000 H       941 pe       0.041986755
     5683 H8           41.063600000        31.263800000        37.562500000 H       941 pe       0.041986755
     5684 C1           40.154300000        33.180100000        37.247700000 C.3     942 pe      -0.084813245
     5685 C2           40.556800000        33.850700000        38.574800000 C.3     942 pe      -0.084813245
     5686 H4           39.195700000        33.580300000        36.926500000 H       942 pe       0.041986755
     5687 H5           40.883300000        33.445200000        36.483000000 H       942 pe       0.041986755
     5688 H6           40.285300000        33.218300000        39.411700000 H       942 pe       0.041986755
     5689 H8           40.010700000        34.785700000        38.672200000 H       942 pe       0.041986755
     5690 C1           42.064100000        34.127400000        38.667600000 C.3     943 pe      -0.084813245
     5691 C2           42.475200000        35.480200000        38.058100000 C.3     943 pe      -0.084813245
     5692 H4           42.601200000        33.325900000        38.172900000 H       943 pe       0.041986755
     5693 H5           42.352200000        34.101900000        39.705500000 H       943 pe       0.041986755
     5694 H6           41.902800000        35.623600000        37.142700000 H       943 pe       0.041986755
     5695 H8           43.525000000        35.433300000        37.777600000 H       943 pe       0.041986755
     5696 C1           42.213300000        36.704000000        38.968100000 C.3     944 pe      -0.084813245
     5697 C2           43.435400000        37.272900000        39.742000000 C.3     944 pe      -0.084813245
     5698 H4           41.359800000        36.518200000        39.608900000 H       944 pe       0.041986755
     5699 H5           41.915500000        37.501100000        38.287700000 H       944 pe       0.041986755
     5700 H6           43.394800000        38.351700000        39.595500000 H       944 pe       0.041986755
     5701 H8           44.347500000        36.944900000        39.256500000 H       944 pe       0.041986755
     5702 C1           43.598200000        37.081300000        41.276500000 C.3     945 pe      -0.084813245
     5703 C2           42.816000000        35.934000000        41.930200000 C.3     945 pe      -0.084813245
     5704 H4           43.332600000        38.013500000        41.770700000 H       945 pe       0.041986755
     5705 H5           44.655600000        36.905900000        41.466300000 H       945 pe       0.041986755
     5706 H6           43.202600000        35.014200000        41.519500000 H       945 pe       0.041986755
     5707 H8           41.759600000        36.042000000        41.715700000 H       945 pe       0.041986755
     5708 C1           42.953500000        35.845900000        43.456700000 C.3     946 pe      -0.084813245
     5709 C2           42.444200000        34.501900000        44.027900000 C.3     946 pe      -0.084813245
     5710 H4           42.404800000        36.664300000        43.921300000 H       946 pe       0.041986755
     5711 H5           44.006700000        35.941300000        43.720700000 H       946 pe       0.041986755
     5712 H6           42.596900000        34.550900000        45.104500000 H       946 pe       0.041986755
     5713 H8           43.045300000        33.680300000        43.649800000 H       946 pe       0.041986755
     5714 C1           40.949500000        34.183800000        43.826600000 C.3     947 pe      -0.084813245
     5715 C2           40.563600000        33.650600000        42.432000000 C.3     947 pe      -0.084813245
     5716 H4           40.386200000        35.097300000        44.010500000 H       947 pe       0.041986755
     5717 H5           40.672400000        33.446100000        44.577800000 H       947 pe       0.041986755
     5718 H6           41.427800000        33.641700000        41.789000000 H       947 pe       0.041986755
     5719 H8           39.846100000        34.344600000        42.000000000 H       947 pe       0.041986755
     5720 C1           39.942000000        32.245600000        42.380800000 C.3     948 pe      -0.084813245
     5721 C2           41.011300000        31.147600000        42.350800000 C.3     948 pe      -0.084813245
     5722 H4           39.345800000        32.203600000        41.472500000 H       948 pe       0.041986755
     5723 H5           39.289300000        32.069700000        43.226000000 H       948 pe       0.041986755
     5724 H6           41.332800000        30.953700000        43.371700000 H       948 pe       0.041986755
     5725 H8           41.870100000        31.489400000        41.782900000 H       948 pe       0.041986755
     5726 C1           40.507500000        29.843700000        41.707200000 C.3     949 pe      -0.084813245
     5727 C2           41.512200000        29.424200000        40.629600000 C.3     949 pe      -0.084813245
     5728 H4           39.512900000        29.951700000        41.281200000 H       949 pe       0.041986755
     5729 H5           40.467000000        29.066600000        42.458800000 H       949 pe       0.041986755
     5730 H6           42.478900000        29.357600000        41.097100000 H       949 pe       0.041986755
     5731 H8           41.555400000        30.161200000        39.830600000 H       949 pe       0.041986755
     5732 C1           41.204800000        28.048500000        40.046300000 C.3     950 pe      -0.084813245
     5733 C2           42.320200000        27.645000000        39.078700000 C.3     950 pe      -0.084813245
     5734 H4           40.253500000        28.075900000        39.518100000 H       950 pe       0.041986755
     5735 H5           41.163300000        27.322000000        40.854300000 H       950 pe       0.041986755
     5736 H6           42.186300000        26.605600000        38.783700000 H       950 pe       0.041986755
     5737 H7           42.278500000        28.283000000        38.197600000 H       950 pe       0.041986755
     5738 H8           43.292700000        27.750300000        39.558300000 H       950 pe       0.041986755
     5739 C1           29.100700000        16.857500000        23.248000000 C.3     951 pe      -0.084813245
     5740 C2           29.877200000        17.955900000        23.986200000 C.3     951 pe      -0.084813245
     5741 H3           28.973300000        17.146600000        22.205700000 H       951 pe       0.041986755
     5742 H4           29.648900000        15.917700000        23.283600000 H       951 pe       0.041986755
     5743 H5           28.124200000        16.719300000        23.708100000 H       951 pe       0.041986755
     5744 H6           29.529500000        18.921200000        23.622100000 H       951 pe       0.041986755
     5745 H8           30.933400000        17.871000000        23.744000000 H       951 pe       0.041986755
     5746 C1           29.662000000        17.926400000        25.512100000 C.3     952 pe      -0.084813245
     5747 C2           30.088900000        16.620900000        26.206500000 C.3     952 pe      -0.084813245
     5748 H4           28.602500000        18.086600000        25.711500000 H       952 pe       0.041986755
     5749 H5           30.216600000        18.754100000        25.954800000 H       952 pe       0.041986755
     5750 H6           29.713400000        15.760100000        25.662400000 H       952 pe       0.041986755
     5751 H8           29.639300000        16.609400000        27.198600000 H       952 pe       0.041986755
     5752 C1           31.612600000        16.541000000        26.382700000 C.3     953 pe      -0.084813245
     5753 C2           32.115000000        15.104500000        26.613700000 C.3     953 pe      -0.084813245
     5754 H4           31.870100000        17.124900000        27.266400000 H       953 pe       0.041986755
     5755 H5           32.129000000        16.987100000        25.539800000 H       953 pe       0.041986755
     5756 H6           31.521300000        14.659300000        27.406900000 H       953 pe       0.041986755
     5757 H8           33.142400000        15.173300000        26.958600000 H       953 pe       0.041986755
     5758 C1           32.072500000        14.123600000        25.425600000 C.3     954 pe      -0.084813245
     5759 C2           32.652200000        14.634600000        24.098300000 C.3     954 pe      -0.084813245
     5760 H4           31.038800000        13.831100000        25.248600000 H       954 pe       0.041986755
     5761 H5           32.623100000        13.228800000        25.715300000 H       954 pe       0.041986755
     5762 H6           32.040500000        15.459000000        23.754000000 H       954 pe       0.041986755
     5763 H8           32.563700000        13.827100000        23.371800000 H       954 pe       0.041986755
     5764 C1           34.133000000        15.051800000        24.179400000 C.3     955 pe      -0.084813245
     5765 C2           34.629100000        15.617700000        22.838400000 C.3     955 pe      -0.084813245
     5766 H4           34.724100000        14.168400000        24.421200000 H       955 pe       0.041986755
     5767 H5           34.293600000        15.800100000        24.953100000 H       955 pe       0.041986755
     5768 H6           34.305700000        14.961300000        22.034800000 H       955 pe       0.041986755
     5769 H8           35.718700000        15.616300000        22.853300000 H       955 pe       0.041986755
     5770 C1           34.165400000        17.072200000        22.612500000 C.3     956 pe      -0.084813245
     5771 C2           33.685200000        17.374000000        21.180900000 C.3     956 pe      -0.084813245
     5772 H4           35.013800000        17.722400000        22.824900000 H       956 pe       0.041986755
     5773 H5           33.372000000        17.336500000        23.306800000 H       956 pe       0.041986755
     5774 H6           34.488900000        17.162200000        20.475800000 H       956 pe       0.041986755
     5775 H8           33.445000000        18.436100000        21.131300000 H       956 pe       0.041986755
     5776 C1           32.435900000        16.569300000        20.787300000 C.3     957 pe      -0.084813245
     5777 C2           31.639100000        17.249600000        19.669400000 C.3     957 pe      -0.084813245
     5778 H4           31.779900000        16.465000000        21.646800000 H       957 pe       0.041986755
     5779 H5           32.740200000        15.581900000        20.443200000 H       957 pe       0.041986755
     5780 H6           32.321200000        17.612600000        18.900800000 H       957 pe       0.041986755
     5781 H8           31.075300000        18.083800000        20.088100000 H       957 pe       0.041986755
     5782 C1           30.682000000        16.207700000        19.069700000 C.3     958 pe      -0.084813245
     5783 C2           29.547200000        16.817600000        18.236500000 C.3     958 pe      -0.084813245
     5784 H4           30.222200000        15.646400000        19.883300000 H       958 pe       0.041986755
     5785 H5           31.249600000        15.514700000        18.448600000 H       958 pe       0.041986755
     5786 H6           28.927600000        17.428500000        18.890400000 H       958 pe       0.041986755
     5787 H8           28.943200000        15.995100000        17.854400000 H       958 pe       0.041986755
     5788 C1           30.060800000        17.657600000        17.053900000 C.3     959 pe      -0.084813245
     5789 C2           29.033500000        17.779100000        15.910900000 C.3     959 pe      -0.084813245
     5790 H4           30.943000000        17.170500000        16.639700000 H       959 pe       0.041986755
     5791 H5           30.351500000        18.646500000        17.403000000 H       959 pe       0.041986755
     5792 H6           28.835400000        16.778200000        15.527600000 H       959 pe       0.041986755
     5793 H8           29.478900000        18.364000000        15.106300000 H       959 pe       0.041986755
     5794 C1           27.683800000        18.414900000        16.288000000 C.3     960 pe      -0.084813245
     5795 C2           27.753000000        19.947700000        16.392700000 C.3     960 pe      -0.084813245
     5796 H4           27.299500000        17.970200000        17.200000000 H       960 pe       0.041986755
     5797 H5           26.987300000        18.181400000        15.485200000 H       960 pe       0.041986755
     5798 H6           27.584100000        20.344800000        15.391800000 H       960 pe       0.041986755
     5799 H8           28.740100000        20.277100000        16.704900000 H       960 pe       0.041986755
     5800 C1           26.671200000        20.547300000        17.313900000 C.3     961 pe      -0.084813245
     5801 C2           26.770700000        20.221200000        18.819700000 C.3     961 pe      -0.084813245
     5802 H4           25.695600000        20.214800000        16.959600000 H       961 pe       0.041986755
     5803 H5           26.713100000        21.630800000        17.205900000 H       961 pe       0.041986755
     5804 H6           26.495200000        19.184100000        18.998700000 H       961 pe       0.041986755
     5805 H8           26.044300000        20.858000000        19.318100000 H       961 pe       0.041986755
     5806 C1           28.161000000        20.489800000        19.419100000 C.3     962 pe      -0.084813245
     5807 C2           28.267200000        20.209100000        20.925600000 C.3     962 pe      -0.084813245
     5808 H4           28.456200000        21.510400000        19.208300000 H       962 pe       0.041986755
     5809 H5           28.882600000        19.830700000        18.951300000 H       962 pe       0.041986755
     5810 H6           29.330000000        20.211500000        21.159900000 H       962 pe       0.041986755
     5811 H8           27.894700000        19.213700000        21.138100000 H       962 pe       0.041986755
     5812 C1           27.620000000        21.272600000        21.831400000 C.3     963 pe      -0.084813245
     5813 C2           26.209400000        20.972000000        22.373400000 C.3     963 pe      -0.084813245
     5814 H4           27.573200000        22.210700000        21.286100000 H       963 pe       0.041986755
     5815 H5           28.279200000        21.422900000        22.686400000 H       963 pe       0.041986755
     5816 H6           25.479900000        20.937800000        21.568100000 H       963 pe       0.041986755
     5817 H8           25.956600000        21.811600000        23.019100000 H       963 pe       0.041986755
     5818 C1           26.108900000        19.710600000        23.244700000 C.3     964 pe      -0.084813245
     5819 C2           25.544000000        18.496100000        22.487700000 C.3     964 pe      -0.084813245
     5820 H4           25.462200000        19.934200000        24.092500000 H       964 pe       0.041986755
     5821 H5           27.095000000        19.462300000        23.631000000 H       964 pe       0.041986755
     5822 H6           26.107200000        17.620700000        22.800900000 H       964 pe       0.041986755
     5823 H8           25.668900000        18.619600000        21.415200000 H       964 pe       0.041986755
     5824 C1           24.061400000        18.254700000        22.806000000 C.3     965 pe      -0.084813245
     5825 C2           23.553800000        16.999500000        22.078600000 C.3     965 pe      -0.084813245
     5826 H4           23.463300000        19.122700000        22.528000000 H       965 pe       0.041986755
     5827 H5           23.958900000        18.080900000        23.877600000 H       965 pe       0.041986755
     5828 H6           22.648500000        16.655800000        22.578600000 H       965 pe       0.041986755
     5829 H8           24.306700000        16.216300000        22.164500000 H       965 pe       0.041986755
     5830 C1           23.214600000        17.250300000        20.598200000 C.3     966 pe      -0.084813245
     5831 C2           23.859400000        16.164500000        19.718100000 C.3     966 pe      -0.084813245
     5832 H4           23.563600000        18.233700000        20.289200000 H       966 pe       0.041986755
     5833 H5           22.132900000        17.216400000        20.490700000 H       966 pe       0.041986755
     5834 H6           23.642600000        15.188300000        20.152300000 H       966 pe       0.041986755
     5835 H8           24.940600000        16.307000000        19.703400000 H       966 pe       0.041986755
     5836 C1           23.332900000        16.134900000        18.273600000 C.3     967 pe      -0.084813245
     5837 C2           23.626700000        17.423200000        17.487800000 C.3     967 pe      -0.084813245
     5838 H4           22.259200000        15.968700000        18.284700000 H       967 pe       0.041986755
     5839 H5           23.800700000        15.286900000        17.775400000 H       967 pe       0.041986755
     5840 H6           24.385800000        17.999600000        18.012600000 H       967 pe       0.041986755
     5841 H8           22.720400000        18.020100000        17.423900000 H       967 pe       0.041986755
     5842 C1           24.168000000        17.148000000        16.076500000 C.3     968 pe      -0.084813245
     5843 C2           23.140400000        16.566600000        15.083000000 C.3     968 pe      -0.084813245
     5844 H4           25.002100000        16.450900000        16.152700000 H       968 pe       0.041986755
     5845 H5           24.562900000        18.085000000        15.700100000 H       968 pe       0.041986755
     5846 H6           22.420800000        15.952600000        15.622600000 H       968 pe       0.041986755
     5847 H8           23.674000000        15.919000000        14.387800000 H       968 pe       0.041986755
     5848 C1           22.360600000        17.613900000        14.264200000 C.3     969 pe      -0.084813245
     5849 C2           23.265300000        18.461500000        13.347400000 C.3     969 pe      -0.084813245
     5850 H4           21.820000000        18.255400000        14.951300000 H       969 pe       0.041986755
     5851 H5           21.638200000        17.078200000        13.648600000 H       969 pe       0.041986755
     5852 H6           24.045200000        17.816500000        12.944000000 H       969 pe       0.041986755
     5853 H8           23.743100000        19.245600000        13.928800000 H       969 pe       0.041986755
     5854 C1           22.541800000        19.093300000        12.141600000 C.3     970 pe      -0.084813245
     5855 C2           21.502200000        20.186200000        12.454900000 C.3     970 pe      -0.084813245
     5856 H4           22.044400000        18.302700000        11.580000000 H       970 pe       0.041986755
     5857 H5           23.300700000        19.532100000        11.493700000 H       970 pe       0.041986755
     5858 H6           20.663000000        19.754700000        12.997300000 H       970 pe       0.041986755
     5859 H8           21.120900000        20.545700000        11.499100000 H       970 pe       0.041986755
     5860 C1           22.079800000        21.405400000        13.200000000 C.3     971 pe      -0.084813245
     5861 C2           21.560200000        21.465400000        14.642400000 C.3     971 pe      -0.084813245
     5862 H4           21.751900000        22.309700000        12.687000000 H       971 pe       0.041986755
     5863 H5           23.168000000        21.383500000        13.184700000 H       971 pe       0.041986755
     5864 H6           21.402200000        20.464200000        15.015600000 H       971 pe       0.041986755
     5865 H8           20.609600000        21.994200000        14.634300000 H       971 pe       0.041986755
     5866 C1           22.539200000        22.170200000        15.589100000 C.3     972 pe      -0.084813245
     5867 C2           21.916300000        22.343400000        16.983600000 C.3     972 pe      -0.084813245
     5868 H4           22.765700000        23.157100000        15.185500000 H       972 pe       0.041986755
     5869 H5           23.461700000        21.595100000        15.669500000 H       972 pe       0.041986755
     5870 H6           20.880900000        22.645600000        16.867000000 H       972 pe       0.041986755
     5871 H8           22.458200000        23.137000000        17.497900000 H       972 pe       0.041986755
     5872 C1           21.967100000        21.075100000        17.850500000 C.3     973 pe      -0.084813245
     5873 C2           21.145100000        21.270100000        19.133400000 C.3     973 pe      -0.084813245
     5874 H4           23.004100000        20.881500000        18.124800000 H       973 pe       0.041986755
     5875 H5           21.578400000        20.216900000        17.310200000 H       973 pe       0.041986755
     5876 H6           21.243700000        22.304400000        19.453700000 H       973 pe       0.041986755
     5877 H8           21.550100000        20.612700000        19.901600000 H       973 pe       0.041986755
     5878 C1           19.655500000        20.948400000        18.936200000 C.3     974 pe      -0.084813245
     5879 C2           18.821700000        21.292700000        20.177200000 C.3     974 pe      -0.084813245
     5880 H4           19.537900000        19.894400000        18.700800000 H       974 pe       0.041986755
     5881 H5           19.261000000        21.540200000        18.113100000 H       974 pe       0.041986755
     5882 H6           17.812500000        21.507400000        19.836200000 H       974 pe       0.041986755
     5883 H8           19.219100000        22.187600000        20.652600000 H       974 pe       0.041986755
     5884 C1           18.776000000        20.151700000        21.205900000 C.3     975 pe      -0.084813245
     5885 C2           17.518800000        19.295400000        20.995900000 C.3     975 pe      -0.084813245
     5886 H4           18.736800000        20.581800000        22.206300000 H       975 pe       0.041986755
     5887 H5           19.673000000        19.540200000        21.119000000 H       975 pe       0.041986755
     5888 H6           17.425700000        19.048800000        19.943000000 H       975 pe       0.041986755
     5889 H8           16.651600000        19.872300000        21.301000000 H       975 pe       0.041986755
     5890 C1           17.553800000        18.020900000        21.849800000 C.3     976 pe      -0.084813245
     5891 C2           16.525100000        16.966700000        21.391400000 C.3     976 pe      -0.084813245
     5892 H4           17.304600000        18.304400000        22.872100000 H       976 pe       0.041986755
     5893 H5           18.555400000        17.598800000        21.858600000 H       976 pe       0.041986755
     5894 H6           15.549800000        17.447800000        21.316700000 H       976 pe       0.041986755
     5895 H8           16.461900000        16.204800000        22.168300000 H       976 pe       0.041986755
     5896 C1           16.810800000        16.251300000        20.053200000 C.3     977 pe      -0.084813245
     5897 C2           18.194200000        15.580400000        19.989800000 C.3     977 pe      -0.084813245
     5898 H4           16.683000000        16.937100000        19.218100000 H       977 pe       0.041986755
     5899 H5           16.063700000        15.464700000        19.946200000 H       977 pe       0.041986755
     5900 H6           18.095900000        14.606500000        19.518000000 H       977 pe       0.041986755
     5901 H8           18.567500000        15.412900000        20.998900000 H       977 pe       0.041986755
     5902 C1           19.214900000        16.414000000        19.198100000 C.3     978 pe      -0.084813245
     5903 C2           19.155300000        16.116100000        17.693800000 C.3     978 pe      -0.084813245
     5904 H4           20.204000000        16.139800000        19.553200000 H       978 pe       0.041986755
     5905 H5           19.069200000        17.472000000        19.379100000 H       978 pe       0.041986755
     5906 H6           18.181500000        15.713900000        17.425200000 H       978 pe       0.041986755
     5907 H8           19.914600000        15.365700000        17.495200000 H       978 pe       0.041986755
     5908 C1           19.468100000        17.331700000        16.808200000 C.3     979 pe      -0.084813245
     5909 C2           18.216200000        18.177900000        16.543100000 C.3     979 pe      -0.084813245
     5910 H4           19.829900000        16.958700000        15.851400000 H       979 pe       0.041986755
     5911 H5           20.245200000        17.935800000        17.270800000 H       979 pe       0.041986755
     5912 H6           17.779500000        18.501200000        17.485200000 H       979 pe       0.041986755
     5913 H8           17.502300000        17.568700000        16.006100000 H       979 pe       0.041986755
     5914 C1           18.518300000        19.396600000        15.665500000 C.3     980 pe      -0.084813245
     5915 C2           17.232900000        20.206100000        15.451000000 C.3     980 pe      -0.084813245
     5916 H4           18.898300000        19.056900000        14.702700000 H       980 pe       0.041986755
     5917 H5           19.261500000        20.021400000        16.150800000 H       980 pe       0.041986755
     5918 H6           16.787400000        20.421900000        16.421900000 H       980 pe       0.041986755
     5919 H8           16.541500000        19.613800000        14.858400000 H       980 pe       0.041986755
     5920 C1           17.531400000        21.531500000        14.733700000 C.3     981 pe      -0.084813245
     5921 C2           16.332500000        22.146000000        13.983700000 C.3     981 pe      -0.084813245
     5922 H4           18.308300000        21.353900000        13.991600000 H       981 pe       0.041986755
     5923 H5           17.908000000        22.241300000        15.466300000 H       981 pe       0.041986755
     5924 H6           16.095400000        21.517500000        13.134700000 H       981 pe       0.041986755
     5925 H8           16.645700000        23.108400000        13.581700000 H       981 pe       0.041986755
     5926 C1           15.046800000        22.343700000        14.806500000 C.3     982 pe      -0.084813245
     5927 C2           15.055900000        23.722700000        15.471500000 C.3     982 pe      -0.084813245
     5928 H4           14.923900000        21.563900000        15.553000000 H       982 pe       0.041986755
     5929 H5           14.197200000        22.300400000        14.125200000 H       982 pe       0.041986755
     5930 H6           14.648200000        24.454800000        14.778200000 H       982 pe       0.041986755
     5931 H8           16.080100000        23.998100000        15.702600000 H       982 pe       0.041986755
     5932 C1           14.275500000        23.755500000        16.789200000 C.3     983 pe      -0.084813245
     5933 C2           12.783100000        23.412100000        16.648800000 C.3     983 pe      -0.084813245
     5934 H4           14.373800000        24.751000000        17.199000000 H       983 pe       0.041986755
     5935 H5           14.751400000        23.073400000        17.484800000 H       983 pe       0.041986755
     5936 H6           12.633400000        22.369700000        16.920200000 H       983 pe       0.041986755
     5937 H8           12.467300000        23.554700000        15.617900000 H       983 pe       0.041986755
     5938 C1           11.936500000        24.330000000        17.548300000 C.3     984 pe      -0.084813245
     5939 C2           10.614800000        23.685500000        17.994100000 C.3     984 pe      -0.084813245
     5940 H4           11.702100000        25.228800000        16.978100000 H       984 pe       0.041986755
     5941 H5           12.499800000        24.616900000        18.433500000 H       984 pe       0.041986755
     5942 H6           10.308600000        22.943400000        17.262900000 H       984 pe       0.041986755
     5943 H8            9.861060000        24.468600000        18.052500000 H       984 pe       0.041986755
     5944 C1           10.758300000        23.017900000        19.369300000 C.3     985 pe      -0.084813245
     5945 C2            9.424920000        22.499500000        19.927700000 C.3     985 pe      -0.084813245
     5946 H4           11.144800000        23.740500000        20.076800000 H       985 pe       0.041986755
     5947 H5           11.455400000        22.195300000        19.263000000 H       985 pe       0.041986755
     5948 H6            9.110570000        21.612500000        19.381000000 H       985 pe       0.041986755
     5949 H8            8.676570000        23.273600000        19.791900000 H       985 pe       0.041986755
     5950 C1            9.470830000        22.211200000        21.440700000 C.3     986 pe      -0.084813245
     5951 C2           10.443000000        21.090000000        21.852500000 C.3     986 pe      -0.084813245
     5952 H4            8.460010000        21.956900000        21.755800000 H       986 pe       0.041986755
     5953 H5            9.764150000        23.121100000        21.964300000 H       986 pe       0.041986755
     5954 H6           11.217000000        21.534700000        22.477800000 H       986 pe       0.041986755
     5955 H8           10.912400000        20.657300000        20.977500000 H       986 pe       0.041986755
     5956 C1            9.772860000        19.963000000        22.656000000 C.3     987 pe      -0.084813245
     5957 C2            9.026180000        18.977800000        21.741200000 C.3     987 pe      -0.084813245
     5958 H4            9.075330000        20.392700000        23.374700000 H       987 pe       0.041986755
     5959 H5           10.538000000        19.422000000        23.213200000 H       987 pe       0.041986755
     5960 H6            8.549920000        19.528400000        20.932200000 H       987 pe       0.041986755
     5961 H8            8.247250000        18.488800000        22.325500000 H       987 pe       0.041986755
     5962 C1            9.958070000        17.882900000        21.185100000 C.3     988 pe      -0.084813245
     5963 C2            9.570700000        17.472600000        19.754700000 C.3     988 pe      -0.084813245
     5964 H4            9.874570000        17.009400000        21.831300000 H       988 pe       0.041986755
     5965 H5           10.993700000        18.214900000        21.194600000 H       988 pe       0.041986755
     5966 H6            8.484750000        17.485400000        19.661800000 H       988 pe       0.041986755
     5967 H8            9.915490000        16.457200000        19.559800000 H       988 pe       0.041986755
     5968 C1           10.176600000        18.432100000        18.717900000 C.3     989 pe      -0.084813245
     5969 C2           11.594300000        18.019200000        18.279300000 C.3     989 pe      -0.084813245
     5970 H4           10.174400000        19.434900000        19.126300000 H       989 pe       0.041986755
     5971 H5            9.538220000        18.428200000        17.837700000 H       989 pe       0.041986755
     5972 H6           11.496900000        17.517400000        17.319100000 H       989 pe       0.041986755
     5973 H8           12.025400000        17.313100000        18.988200000 H       989 pe       0.041986755
     5974 C1           12.550200000        19.217500000        18.114900000 C.3     990 pe      -0.084813245
     5975 C2           13.568200000        19.244500000        19.268000000 C.3     990 pe      -0.084813245
     5976 H4           11.987300000        20.146000000        18.070200000 H       990 pe       0.041986755
     5977 H5           13.096100000        19.116000000        17.179400000 H       990 pe       0.041986755
     5978 H6           14.278100000        18.429400000        19.126100000 H       990 pe       0.041986755
     5979 H8           13.046500000        19.097100000        20.210700000 H       990 pe       0.041986755
     5980 C1           14.350500000        20.565500000        19.325700000 C.3     991 pe      -0.084813245
     5981 C2           14.113800000        21.265500000        20.674100000 C.3     991 pe      -0.084813245
     5982 H4           14.014100000        21.208500000        18.523500000 H       991 pe       0.041986755
     5983 H5           15.410100000        20.363200000        19.186400000 H       991 pe       0.041986755
     5984 H6           14.353900000        20.584100000        21.489600000 H       991 pe       0.041986755
     5985 H8           13.067300000        21.528200000        20.733600000 H       991 pe       0.041986755
     5986 C1           14.931000000        22.552200000        20.852700000 C.3     992 pe      -0.084813245
     5987 C2           14.446100000        23.309600000        22.100100000 C.3     992 pe      -0.084813245
     5988 H4           14.845800000        23.180400000        19.967500000 H       992 pe       0.041986755
     5989 H5           15.974700000        22.295700000        21.003300000 H       992 pe       0.041986755
     5990 H6           15.305800000        23.527200000        22.733300000 H       992 pe       0.041986755
     5991 H8           13.746900000        22.691900000        22.662200000 H       992 pe       0.041986755
     5992 C1           13.767900000        24.629900000        21.717900000 C.3     993 pe      -0.084813245
     5993 C2           12.957000000        25.199200000        22.885700000 C.3     993 pe      -0.084813245
     5994 H4           13.122400000        24.470700000        20.864000000 H       993 pe       0.041986755
     5995 H5           14.526800000        25.351400000        21.454100000 H       993 pe       0.041986755
     5996 H6           13.600400000        25.250600000        23.763500000 H       993 pe       0.041986755
     5997 H8           12.117100000        24.539900000        23.104700000 H       993 pe       0.041986755
     5998 C1           12.441900000        26.617100000        22.586200000 C.3     994 pe      -0.084813245
     5999 C2           11.422000000        26.632500000        21.436600000 C.3     994 pe      -0.084813245
     6000 H4           13.277900000        27.270700000        22.342500000 H       994 pe       0.041986755
     6001 H5           11.966600000        26.986900000        23.493500000 H       994 pe       0.041986755
     6002 H6           10.794600000        25.752500000        21.537700000 H       994 pe       0.041986755
     6003 H8           11.940500000        26.596000000        20.479100000 H       994 pe       0.041986755
     6004 C1           10.560400000        27.905700000        21.486000000 C.3     995 pe      -0.084813245
     6005 C2            9.416890000        27.918300000        20.452000000 C.3     995 pe      -0.084813245
     6006 H4           11.204700000        28.759700000        21.282500000 H       995 pe       0.041986755
     6007 H5           10.142300000        28.042300000        22.481200000 H       995 pe       0.041986755
     6008 H6            9.863140000        28.009500000        19.462400000 H       995 pe       0.041986755
     6009 H8            8.820350000        28.811600000        20.624800000 H       995 pe       0.041986755
     6010 C1            8.483010000        26.687800000        20.416900000 C.3     996 pe      -0.084813245
     6011 C2            7.945060000        26.160000000        21.765100000 C.3     996 pe      -0.084813245
     6012 H4            9.030990000        25.875100000        19.945800000 H       996 pe       0.041986755
     6013 H5            7.641040000        26.917900000        19.765100000 H       996 pe       0.041986755
     6014 H6            8.627470000        26.344000000        22.589100000 H       996 pe       0.041986755
     6015 H8            7.858260000        25.079600000        21.657000000 H       996 pe       0.041986755
     6016 C1            6.546390000        26.660400000        22.148100000 C.3     997 pe      -0.084813245
     6017 C2            6.473940000        28.157300000        22.502600000 C.3     997 pe      -0.084813245
     6018 H4            6.246050000        26.108000000        23.038300000 H       997 pe       0.041986755
     6019 H5            5.855780000        26.402700000        21.351900000 H       997 pe       0.041986755
     6020 H6            7.477960000        28.541600000        22.672600000 H       997 pe       0.041986755
     6021 H8            5.922070000        28.258800000        23.437100000 H       997 pe       0.041986755
     6022 C1            5.779730000        29.024500000        21.437100000 C.3     998 pe      -0.084813245
     6023 C2            4.295810000        28.658900000        21.257100000 C.3     998 pe      -0.084813245
     6024 H4            6.311420000        28.954800000        20.490200000 H       998 pe       0.041986755
     6025 H5            5.827600000        30.060400000        21.772300000 H       998 pe       0.041986755
     6026 H6            3.701000000        29.562200000        21.391900000 H       998 pe       0.041986755
     6027 H8            3.995910000        27.940000000        22.016600000 H       998 pe       0.041986755
     6028 C1            4.017930000        28.109800000        19.847700000 C.3     999 pe      -0.084813245
     6029 C2            2.728260000        27.276600000        19.796000000 C.3     999 pe      -0.084813245
     6030 H4            4.843560000        27.496600000        19.489900000 H       999 pe       0.041986755
     6031 H5            3.908200000        28.964400000        19.181900000 H       999 pe       0.041986755
     6032 H6            2.372000000        27.266400000        18.766400000 H       999 pe       0.041986755
     6033 H8            1.969220000        27.739100000        20.426800000 H       999 pe       0.041986755
     6034 C1            2.969290000        25.823800000        20.239800000 C.3    1000 pe      -0.084813245
     6035 C2            1.695580000        24.991300000        20.069500000 C.3    1000 pe      -0.084813245
     6036 H4            3.264590000        25.793100000        21.287400000 H      1000 pe       0.041986755
     6037 H5            3.755880000        25.378200000        19.631800000 H      1000 pe       0.041986755
     6038 H6            1.880320000        23.978700000        20.428500000 H      1000 pe       0.041986755
     6039 H7            0.884388000        25.434700000        20.646700000 H      1000 pe       0.041986755
     6040 H8            1.416630000        24.952500000        19.016600000 H      1000 pe       0.041986755
@<TRIPOS>BOND
        1         1         2 1     
        2         1         3 1     
        3         1         4 1     
        4         1         5 1     
        5         2         6 1     
        6         2         7 1     
        7         8         9 1     
        8         8        10 1     
        9         8        11 1     
       10         9        12 1     
       11         9        13 1     
       12         2         8 1     
       13        14        15 1     
       14        14        16 1     
       15        14        17 1     
       16        15        18 1     
       17        15        19 1     
       18         9        14 1     
       19        20        21 1     
       20        20        22 1     
       21        20        23 1     
       22        21        24 1     
       23        21        25 1     
       24        15        20 1     
       25        26        27 1     
       26        26        28 1     
       27        26        29 1     
       28        27        30 1     
       29        27        31 1     
       30        21        26 1     
       31        32        33 1     
       32        32        34 1     
       33        32        35 1     
       34        33        36 1     
       35        33        37 1     
       36        27        32 1     
       37        38        39 1     
       38        38        40 1     
       39        38        41 1     
       40        39        42 1     
       41        39        43 1     
       42        33        38 1     
       43        44        45 1     
       44        44        46 1     
       45        44        47 1     
       46        45        48 1     
       47        45        49 1     
       48        39        44 1     
       49        50        51 1     
       50        50        52 1     
       51        50        53 1     
       52        51        54 1     
       53        51        55 1     
       54        45        50 1     
       55        56        57 1     
       56        56        58 1     
       57        56        59 1     
       58        57        60 1     
       59        57        61 1     
       60        51        56 1     
       61        62        63 1     
       62        62        64 1     
       63        62        65 1     
       64        63        66 1     
       65        63        67 1     
       66        57        62 1     
       67        68        69 1     
       68        68        70 1     
       69        68        71 1     
       70        69        72 1     
       71        69        73 1     
       72        63        68 1     
       73        74        75 1     
       74        74        76 1     
       75        74        77 1     
       76        75        78 1     
       77        75        79 1     
       78        69        74 1     
       79        80        81 1     
       80        80        82 1     
       81        80        83 1     
       82        81        84 1     
       83        81        85 1     
       84        75        80 1     
       85        86        87 1     
       86        86        88 1     
       87        86        89 1     
       88        87        90 1     
       89        87        91 1     
       90        81        86 1     
       91        92        93 1     
       92        92        94 1     
       93        92        95 1     
       94        93        96 1     
       95        93        97 1     
       96        87        92 1     
       97        98        99 1     
       98        98       100 1     
       99        98       101 1     
      100        99       102 1     
      101        99       103 1     
      102        93        98 1     
      103       104       105 1     
      104       104       106 1     
      105       104       107 1     
      106       105       108 1     
      107       105       109 1     
      108        99       104 1     
      109       110       111 1     
      110       110       112 1     
      111       110       113 1     
      112       111       114 1     
      113       111       115 1     
      114       105       110 1     
      115       116       117 1     
      116       116       118 1     
      117       116       119 1     
      118       117       120 1     
      119       117       121 1     
      120       111       116 1     
      121       122       123 1     
      122       122       124 1     
      123       122       125 1     
      124       123       126 1     
      125       123       127 1     
      126       117       122 1     
      127       128       129 1     
      128       128       130 1     
      129       128       131 1     
      130       129       132 1     
      131       129       133 1     
      132       123       128 1     
      133       134       135 1     
      134       134       136 1     
      135       134       137 1     
      136       135       138 1     
      137       135       139 1     
      138       129       134 1     
      139       140       141 1     
      140       140       142 1     
      141       140       143 1     
      142       141       144 1     
      143       141       145 1     
      144       135       140 1     
      145       146       147 1     
      146       146       148 1     
      147       146       149 1     
      148       147       150 1     
      149       147       151 1     
      150       141       146 1     
      151       152       153 1     
      152       152       154 1     
      153       152       155 1     
      154       153       156 1     
      155       153       157 1     
      156       147       152 1     
      157       158       159 1     
      158       158       160 1     
      159       158       161 1     
      160       159       162 1     
      161       159       163 1     
      162       153       158 1     
      163       164       165 1     
      164       164       166 1     
      165       164       167 1     
      166       165       168 1     
      167       165       169 1     
      168       159       164 1     
      169       170       171 1     
      170       170       172 1     
      171       170       173 1     
      172       171       174 1     
      173       171       175 1     
      174       165       170 1     
      175       176       177 1     
      176       176       178 1     
      177       176       179 1     
      178       177       180 1     
      179       177       181 1     
      180       171       176 1     
      181       182       183 1     
      182       182       184 1     
      183       182       185 1     
      184       183       186 1     
      185       183       187 1     
      186       177       182 1     
      187       188       189 1     
      188       188       190 1     
      189       188       191 1     
      190       189       192 1     
      191       189       193 1     
      192       183       188 1     
      193       194       195 1     
      194       194       196 1     
      195       194       197 1     
      196       195       198 1     
      197       195       199 1     
      198       189       194 1     
      199       200       201 1     
      200       200       202 1     
      201       200       203 1     
      202       201       204 1     
      203       201       205 1     
      204       195       200 1     
      205       206       207 1     
      206       206       208 1     
      207       206       209 1     
      208       207       210 1     
      209       207       211 1     
      210       201       206 1     
      211       212       213 1     
      212       212       214 1     
      213       212       215 1     
      214       213       216 1     
      215       213       217 1     
      216       207       212 1     
      217       218       219 1     
      218       218       220 1     
      219       218       221 1     
      220       219       222 1     
      221       219       223 1     
      222       213       218 1     
      223       224       225 1     
      224       224       226 1     
      225       224       227 1     
      226       225       228 1     
      227       225       229 1     
      228       219       224 1     
      229       230       231 1     
      230       230       232 1     
      231       230       233 1     
      232       231       234 1     
      233       231       235 1     
      234       225       230 1     
      235       236       237 1     
      236       236       238 1     
      237       236       239 1     
      238       237       240 1     
      239       237       241 1     
      240       231       236 1     
      241       242       243 1     
      242       242       244 1     
      243       242       245 1     
      244       243       246 1     
      245       243       247 1     
      246       237       242 1     
      247       248       249 1     
      248       248       250 1     
      249       248       251 1     
      250       249       252 1     
      251       249       253 1     
      252       243       248 1     
      253       254       255 1     
      254       254       256 1     
      255       254       257 1     
      256       255       258 1     
      257       255       259 1     
      258       249       254 1     
      259       260       261 1     
      260       260       262 1     
      261       260       263 1     
      262       261       264 1     
      263       261       265 1     
      264       255       260 1     
      265       266       267 1     
      266       266       268 1     
      267       266       269 1     
      268       267       270 1     
      269       267       271 1     
      270       261       266 1     
      271       272       273 1     
      272       272       274 1     
      273       272       275 1     
      274       273       276 1     
      275       273       277 1     
      276       267       272 1     
      277       278       279 1     
      278       278       280 1     
      279       278       281 1     
      280       279       282 1     
      281       279       283 1     
      282       273       278 1     
      283       284       285 1     
      284       284       286 1     
      285       284       287 1     
      286       285       288 1     
      287       285       289 1     
      288       279       284 1     
      289       290       291 1     
      290       290       292 1     
      291       290       293 1     
      292       291       294 1     
      293       291       295 1     
      294       285       290 1     
      295       296       297 1     
      296       296       298 1     
      297       296       299 1     
      298       297       300 1     
      299       297       301 1     
      300       297       302 1     
      301       291       296 1     
      302       303       304 1     
      303       303       305 1     
      304       303       306 1     
      305       303       307 1     
      306       304       308 1     
      307       304       309 1     
      308       310       311 1     
      309       310       312 1     
      310       310       313 1     
      311       311       314 1     
      312       311       315 1     
      313       304       310 1     
      314       316       317 1     
      315       316       318 1     
      316       316       319 1     
      317       317       320 1     
      318       317       321 1     
      319       311       316 1     
      320       322       323 1     
      321       322       324 1     
      322       322       325 1     
      323       323       326 1     
      324       323       327 1     
      325       317       322 1     
      326       328       329 1     
      327       328       330 1     
      328       328       331 1     
      329       329       332 1     
      330       329       333 1     
      331       323       328 1     
      332       334       335 1     
      333       334       336 1     
      334       334       337 1     
      335       335       338 1     
      336       335       339 1     
      337       329       334 1     
      338       340       341 1     
      339       340       342 1     
      340       340       343 1     
      341       341       344 1     
      342       341       345 1     
      343       335       340 1     
      344       346       347 1     
      345       346       348 1     
      346       346       349 1     
      347       347       350 1     
      348       347       351 1     
      349       341       346 1     
      350       352       353 1     
      351       352       354 1     
      352       352       355 1     
      353       353       356 1     
      354       353       357 1     
      355       347       352 1     
      356       358       359 1     
      357       358       360 1     
      358       358       361 1     
      359       359       362 1     
      360       359       363 1     
      361       353       358 1     
      362       364       365 1     
      363       364       366 1     
      364       364       367 1     
      365       365       368 1     
      366       365       369 1     
      367       359       364 1     
      368       370       371 1     
      369       370       372 1     
      370       370       373 1     
      371       371       374 1     
      372       371       375 1     
      373       365       370 1     
      374       376       377 1     
      375       376       378 1     
      376       376       379 1     
      377       377       380 1     
      378       377       381 1     
      379       371       376 1     
      380       382       383 1     
      381       382       384 1     
      382       382       385 1     
      383       383       386 1     
      384       383       387 1     
      385       377       382 1     
      386       388       389 1     
      387       388       390 1     
      388       388       391 1     
      389       389       392 1     
      390       389       393 1     
      391       383       388 1     
      392       394       395 1     
      393       394       396 1     
      394       394       397 1     
      395       395       398 1     
      396       395       399 1     
      397       389       394 1     
      398       400       401 1     
      399       400       402 1     
      400       400       403 1     
      401       401       404 1     
      402       401       405 1     
      403       395       400 1     
      404       406       407 1     
      405       406       408 1     
      406       406       409 1     
      407       407       410 1     
      408       407       411 1     
      409       401       406 1     
      410       412       413 1     
      411       412       414 1     
      412       412       415 1     
      413       413       416 1     
      414       413       417 1     
      415       407       412 1     
      416       418       419 1     
      417       418       420 1     
      418       418       421 1     
      419       419       422 1     
      420       419       423 1     
      421       413       418 1     
      422       424       425 1     
      423       424       426 1     
      424       424       427 1     
      425       425       428 1     
      426       425       429 1     
      427       419       424 1     
      428       430       431 1     
      429       430       432 1     
      430       430       433 1     
      431       431       434 1     
      432       431       435 1     
      433       425       430 1     
      434       436       437 1     
      435       436       438 1     
      436       436       439 1     
      437       437       440 1     
      438       437       441 1     
      439       431       436 1     
      440       442       443 1     
      441       442       444 1     
      442       442       445 1     
      443       443       446 1     
      444       443       447 1     
      445       437       442 1     
      446       448       449 1     
      447       448       450 1     
      448       448       451 1     
      449       449       452 1     
      450       449       453 1     
      451       443       448 1     
      452       454       455 1     
      453       454       456 1     
      454       454       457 1     
      455       455       458 1     
      456       455       459 1     
      457       449       454 1     
      458       460       461 1     
      459       460       462 1     
      460       460       463 1     
      461       461       464 1     
      462       461       465 1     
      463       455       460 1     
      464       466       467 1     
      465       466       468 1     
      466       466       469 1     
      467       467       470 1     
      468       467       471 1     
      469       461       466 1     
      470       472       473 1     
      471       472       474 1     
      472       472       475 1     
      473       473       476 1     
      474       473       477 1     
      475       467       472 1     
      476       478       479 1     
      477       478       480 1     
      478       478       481 1     
      479       479       482 1     
      480       479       483 1     
      481       473       478 1     
      482       484       485 1     
      483       484       486 1     
      484       484       487 1     
      485       485       488 1     
      486       485       489 1     
      487       479       484 1     
      488       490       491 1     
      489       490       492 1     
      490       490       493 1     
      491       491       494 1     
      492       491       495 1     
      493       485       490 1     
      494       496       497 1     
      495       496       498 1     
      496       496       499 1     
      497       497       500 1     
      498       497       501 1     
      499       491       496 1     
      500       502       503 1     
      501       502       504 1     
      502       502       505 1     
      503       503       506 1     
      504       503       507 1     
      505       497       502 1     
      506       508       509 1     
      507       508       510 1     
      508       508       511 1     
      509       509       512 1     
      510       509       513 1     
      511       503       508 1     
      512       514       515 1     
      513       514       516 1     
      514       514       517 1     
      515       515       518 1     
      516       515       519 1     
      517       509       514 1     
      518       520       521 1     
      519       520       522 1     
      520       520       523 1     
      521       521       524 1     
      522       521       525 1     
      523       515       520 1     
      524       526       527 1     
      525       526       528 1     
      526       526       529 1     
      527       527       530 1     
      528       527       531 1     
      529       521       526 1     
      530       532       533 1     
      531       532       534 1     
      532       532       535 1     
      533       533       536 1     
      534       533       537 1     
      535       527       532 1     
      536       538       539 1     
      537       538       540 1     
      538       538       541 1     
      539       539       542 1     
      540       539       543 1     
      541       533       538 1     
      542       544       545 1     
      543       544       546 1     
      544       544       547 1     
      545       545       548 1     
      546       545       549 1     
      547       539       544 1     
      548       550       551 1     
      549       550       552 1     
      550       550       553 1     
      551       551       554 1     
      552       551       555 1     
      553       545       550 1     
      554       556       557 1     
      555       556       558 1     
      556       556       559 1     
      557       557       560 1     
      558       557       561 1     
      559       551       556 1     
      560       562       563 1     
      561       562       564 1     
      562       562       565 1     
      563       563       566 1     
      564       563       567 1     
      565       557       562 1     
      566       568       569 1     
      567       568       570 1     
      568       568       571 1     
      569       569       572 1     
      570       569       573 1     
      571       563       568 1     
      572       574       575 1     
      573       574       576 1     
      574       574       577 1     
      575       575       578 1     
      576       575       579 1     
      577       569       574 1     
      578       580       581 1     
      579       580       582 1     
      580       580       583 1     
      581       581       584 1     
      582       581       585 1     
      583       575       580 1     
      584       586       587 1     
      585       586       588 1     
      586       586       589 1     
      587       587       590 1     
      588       587       591 1     
      589       581       586 1     
      590       592       593 1     
      591       592       594 1     
      592       592       595 1     
      593       593       596 1     
      594       593       597 1     
      595       587       592 1     
      596       598       599 1     
      597       598       600 1     
      598       598       601 1     
      599       599       602 1     
      600       599       603 1     
      601       599       604 1     
      602       593       598 1     
      603       605       606 1     
      604       605       607 1     
      605       605       608 1     
      606       605       609 1     
      607       606       610 1     
      608       606       611 1     
      609       612       613 1     
      610       612       614 1     
      611       612       615 1     
      612       613       616 1     
      613       613       617 1     
      614       606       612 1     
      615       618       619 1     
      616       618       620 1     
      617       618       621 1     
      618       619       622 1     
      619       619       623 1     
      620       613       618 1     
      621       624       625 1     
      622       624       626 1     
      623       624       627 1     
      624       625       628 1     
      625       625       629 1     
      626       619       624 1     
      627       630       631 1     
      628       630       632 1     
      629       630       633 1     
      630       631       634 1     
      631       631       635 1     
      632       625       630 1     
      633       636       637 1     
      634       636       638 1     
      635       636       639 1     
      636       637       640 1     
      637       637       641 1     
      638       631       636 1     
      639       642       643 1     
      640       642       644 1     
      641       642       645 1     
      642       643       646 1     
      643       643       647 1     
      644       637       642 1     
      645       648       649 1     
      646       648       650 1     
      647       648       651 1     
      648       649       652 1     
      649       649       653 1     
      650       643       648 1     
      651       654       655 1     
      652       654       656 1     
      653       654       657 1     
      654       655       658 1     
      655       655       659 1     
      656       649       654 1     
      657       660       661 1     
      658       660       662 1     
      659       660       663 1     
      660       661       664 1     
      661       661       665 1     
      662       655       660 1     
      663       666       667 1     
      664       666       668 1     
      665       666       669 1     
      666       667       670 1     
      667       667       671 1     
      668       661       666 1     
      669       672       673 1     
      670       672       674 1     
      671       672       675 1     
      672       673       676 1     
      673       673       677 1     
      674       667       672 1     
      675       678       679 1     
      676       678       680 1     
      677       678       681 1     
      678       679       682 1     
      679       679       683 1     
      680       673       678 1     
      681       684       685 1     
      682       684       686 1     
      683       684       687 1     
      684       685       688 1     
      685       685       689 1     
      686       679       684 1     
      687       690       691 1     
      688       690       692 1     
      689       690       693 1     
      690       691       694 1     
      691       691       695 1     
      692       685       690 1     
      693       696       697 1     
      694       696       698 1     
      695       696       699 1     
      696       697       700 1     
      697       697       701 1     
      698       691       696 1     
      699       702       703 1     
      700       702       704 1     
      701       702       705 1     
      702       703       706 1     
      703       703       707 1     
      704       697       702 1     
      705       708       709 1     
      706       708       710 1     
      707       708       711 1     
      708       709       712 1     
      709       709       713 1     
      710       703       708 1     
      711       714       715 1     
      712       714       716 1     
      713       714       717 1     
      714       715       718 1     
      715       715       719 1     
      716       709       714 1     
      717       720       721 1     
      718       720       722 1     
      719       720       723 1     
      720       721       724 1     
      721       721       725 1     
      722       715       720 1     
      723       726       727 1     
      724       726       728 1     
      725       726       729 1     
      726       727       730 1     
      727       727       731 1     
      728       721       726 1     
      729       732       733 1     
      730       732       734 1     
      731       732       735 1     
      732       733       736 1     
      733       733       737 1     
      734       727       732 1     
      735       738       739 1     
      736       738       740 1     
      737       738       741 1     
      738       739       742 1     
      739       739       743 1     
      740       733       738 1     
      741       744       745 1     
      742       744       746 1     
      743       744       747 1     
      744       745       748 1     
      745       745       749 1     
      746       739       744 1     
      747       750       751 1     
      748       750       752 1     
      749       750       753 1     
      750       751       754 1     
      751       751       755 1     
      752       745       750 1     
      753       756       757 1     
      754       756       758 1     
      755       756       759 1     
      756       757       760 1     
      757       757       761 1     
      758       751       756 1     
      759       762       763 1     
      760       762       764 1     
      761       762       765 1     
      762       763       766 1     
      763       763       767 1     
      764       757       762 1     
      765       768       769 1     
      766       768       770 1     
      767       768       771 1     
      768       769       772 1     
      769       769       773 1     
      770       763       768 1     
      771       774       775 1     
      772       774       776 1     
      773       774       777 1     
      774       775       778 1     
      775       775       779 1     
      776       769       774 1     
      777       780       781 1     
      778       780       782 1     
      779       780       783 1     
      780       781       784 1     
      781       781       785 1     
      782       775       780 1     
      783       786       787 1     
      784       786       788 1     
      785       786       789 1     
      786       787       790 1     
      787       787       791 1     
      788       781       786 1     
      789       792       793 1     
      790       792       794 1     
      791       792       795 1     
      792       793       796 1     
      793       793       797 1     
      794       787       792 1     
      795       798       799 1     
      796       798       800 1     
      797       798       801 1     
      798       799       802 1     
      799       799       803 1     
      800       793       798 1     
      801       804       805 1     
      802       804       806 1     
      803       804       807 1     
      804       805       808 1     
      805       805       809 1     
      806       799       804 1     
      807       810       811 1     
      808       810       812 1     
      809       810       813 1     
      810       811       814 1     
      811       811       815 1     
      812       805       810 1     
      813       816       817 1     
      814       816       818 1     
      815       816       819 1     
      816       817       820 1     
      817       817       821 1     
      818       811       816 1     
      819       822       823 1     
      820       822       824 1     
      821       822       825 1     
      822       823       826 1     
      823       823       827 1     
      824       817       822 1     
      825       828       829 1     
      826       828       830 1     
      827       828       831 1     
      828       829       832 1     
      829       829       833 1     
      830       823       828 1     
      831       834       835 1     
      832       834       836 1     
      833       834       837 1     
      834       835       838 1     
      835       835       839 1     
      836       829       834 1     
      837       840       841 1     
      838       840       842 1     
      839       840       843 1     
      840       841       844 1     
      841       841       845 1     
      842       835       840 1     
      843       846       847 1     
      844       846       848 1     
      845       846       849 1     
      846       847       850 1     
      847       847       851 1     
      848       841       846 1     
      849       852       853 1     
      850       852       854 1     
      851       852       855 1     
      852       853       856 1     
      853       853       857 1     
      854       847       852 1     
      855       858       859 1     
      856       858       860 1     
      857       858       861 1     
      858       859       862 1     
      859       859       863 1     
      860       853       858 1     
      861       864       865 1     
      862       864       866 1     
      863       864       867 1     
      864       865       868 1     
      865       865       869 1     
      866       859       864 1     
      867       870       871 1     
      868       870       872 1     
      869       870       873 1     
      870       871       874 1     
      871       871       875 1     
      872       865       870 1     
      873       876       877 1     
      874       876       878 1     
      875       876       879 1     
      876       877       880 1     
      877       877       881 1     
      878       871       876 1     
      879       882       883 1     
      880       882       884 1     
      881       882       885 1     
      882       883       886 1     
      883       883       887 1     
      884       877       882 1     
      885       888       889 1     
      886       888       890 1     
      887       888       891 1     
      888       889       892 1     
      889       889       893 1     
      890       883       888 1     
      891       894       895 1     
      892       894       896 1     
      893       894       897 1     
      894       895       898 1     
      895       895       899 1     
      896       889       894 1     
      897       900       901 1     
      898       900       902 1     
      899       900       903 1     
      900       901       904 1     
      901       901       905 1     
      902       901       906 1     
      903       895       900 1     
      904       907       908 1     
      905       907       909 1     
      906       907       910 1     
      907       907       911 1     
      908       908       912 1     
      909       908       913 1     
      910       914       915 1     
      911       914       916 1     
      912       914       917 1     
      913       915       918 1     
      914       915       919 1     
      915       908       914 1     
      916       920       921 1     
      917       920       922 1     
      918       920       923 1     
      919       921       924 1     
      920       921       925 1     
      921       915       920 1     
      922       926       927 1     
      923       926       928 1     
      924       926       929 1     
      925       927       930 1     
      926       927       931 1     
      927       921       926 1     
      928       932       933 1     
      929       932       934 1     
      930       932       935 1     
      931       933       936 1     
      932       933       937 1     
      933       927       932 1     
      934       938       939 1     
      935       938       940 1     
      936       938       941 1     
      937       939       942 1     
      938       939       943 1     
      939       933       938 1     
      940       944       945 1     
      941       944       946 1     
      942       944       947 1     
      943       945       948 1     
      944       945       949 1     
      945       939       944 1     
      946       950       951 1     
      947       950       952 1     
      948       950       953 1     
      949       951       954 1     
      950       951       955 1     
      951       945       950 1     
      952       956       957 1     
      953       956       958 1     
      954       956       959 1     
      955       957       960 1     
      956       957       961 1     
      957       951       956 1     
      958       962       963 1     
      959       962       964 1     
      960       962       965 1     
      961       963       966 1     
      962       963       967 1     
      963       957       962 1     
      964       968       969 1     
      965       968       970 1     
      966       968       971 1     
      967       969       972 1     
      968       969       973 1     
      969       963       968 1     
      970       974       975 1     
      971       974       976 1     
      972       974       977 1     
      973       975       978 1     
      974       975       979 1     
      975       969       974 1     
      976       980       981 1     
      977       980       982 1     
      978       980       983 1     
      979       981       984 1     
      980       981       985 1     
      981       975       980 1     
      982       986       987 1     
      983       986       988 1     
      984       986       989 1     
      985       987       990 1     
      986       987       991 1     
      987       981       986 1     
      988       992       993 1     
      989       992       994 1     
      990       992       995 1     
      991       993       996 1     
      992       993       997 1     
      993       987       992 1     
      994       998       999 1     
      995       998      1000 1     
      996       998      1001 1     
      997       999      1002 1     
      998       999      1003 1     
      999       993       998 1     
     1000      1004      1005 1     
     1001      1004      1006 1     
     1002      1004      1007 1     
     1003      1005      1008 1     
     1004      1005      1009 1     
     1005       999      1004 1     
     1006      1010      1011 1     
     1007      1010      1012 1     
     1008      1010      1013 1     
     1009      1011      1014 1     
     1010      1011      1015 1     
     1011      1005      1010 1     
     1012      1016      1017 1     
     1013      1016      1018 1     
     1014      1016      1019 1     
     1015      1017      1020 1     
     1016      1017      1021 1     
     1017      1011      1016 1     
     1018      1022      1023 1     
     1019      1022      1024 1     
     1020      1022      1025 1     
     1021      1023      1026 1     
     1022      1023      1027 1     
     1023      1017      1022 1     
     1024      1028      1029 1     
     1025      1028      1030 1     
     1026      1028      1031 1     
     1027      1029      1032 1     
     1028      1029      1033 1     
     1029      1023      1028 1     
     1030      1034      1035 1     
     1031      1034      1036 1     
     1032      1034      1037 1     
     1033      1035      1038 1     
     1034      1035      1039 1     
     1035      1029      1034 1     
     1036      1040      1041 1     
     1037      1040      1042 1     
     1038      1040      1043 1     
     1039      1041      1044 1     
     1040      1041      1045 1     
     1041      1035      1040 1     
     1042      1046      1047 1     
     1043      1046      1048 1     
     1044      1046      1049 1     
     1045      1047      1050 1     
     1046      1047      1051 1     
     1047      1041      1046 1     
     1048      1052      1053 1     
     1049      1052      1054 1     
     1050      1052      1055 1     
     1051      1053      1056 1     
     1052      1053      1057 1     
     1053      1047      1052 1     
     1054      1058      1059 1     
     1055      1058      1060 1     
     1056      1058      1061 1     
     1057      1059      1062 1     
     1058      1059      1063 1     
     1059      1053      1058 1     
     1060      1064      1065 1     
     1061      1064      1066 1     
     1062      1064      1067 1     
     1063      1065      1068 1     
     1064      1065      1069 1     
     1065      1059      1064 1     
     1066      1070      1071 1     
     1067      1070      1072 1     
     1068      1070      1073 1     
     1069      1071      1074 1     
     1070      1071      1075 1     
     1071      1065      1070 1     
     1072      1076      1077 1     
     1073      1076      1078 1     
     1074      1076      1079 1     
     1075      1077      1080 1     
     1076      1077      1081 1     
     1077      1071      1076 1     
     1078      1082      1083 1     
     1079      1082      1084 1     
     1080      1082      1085 1     
     1081      1083      1086 1     
     1082      1083      1087 1     
     1083      1077      1082 1     
     1084      1088      1089 1     
     1085      1088      1090 1     
     1086      1088      1091 1     
     1087      1089      1092 1     
     1088      1089      1093 1     
     1089      1083      1088 1     
     1090      1094      1095 1     
     1091      1094      1096 1     
     1092      1094      1097 1     
     1093      1095      1098 1     
     1094      1095      1099 1     
     1095      1089      1094 1     
     1096      1100      1101 1     
     1097      1100      1102 1     
     1098      1100      1103 1     
     1099      1101      1104 1     
     1100      1101      1105 1     
     1101      1095      1100 1     
     1102      1106      1107 1     
     1103      1106      1108 1     
     1104      1106      1109 1     
     1105      1107      1110 1     
     1106      1107      1111 1     
     1107      1101      1106 1     
     1108      1112      1113 1     
     1109      1112      1114 1     
     1110      1112      1115 1     
     1111      1113      1116 1     
     1112      1113      1117 1     
     1113      1107      1112 1     
     1114      1118      1119 1     
     1115      1118      1120 1     
     1116      1118      1121 1     
     1117      1119      1122 1     
     1118      1119      1123 1     
     1119      1113      1118 1     
     1120      1124      1125 1     
     1121      1124      1126 1     
     1122      1124      1127 1     
     1123      1125      1128 1     
     1124      1125      1129 1     
     1125      1119      1124 1     
     1126      1130      1131 1     
     1127      1130      1132 1     
     1128      1130      1133 1     
     1129      1131      1134 1     
     1130      1131      1135 1     
     1131      1125      1130 1     
     1132      1136      1137 1     
     1133      1136      1138 1     
     1134      1136      1139 1     
     1135      1137      1140 1     
     1136      1137      1141 1     
     1137      1131      1136 1     
     1138      1142      1143 1     
     1139      1142      1144 1     
     1140      1142      1145 1     
     1141      1143      1146 1     
     1142      1143      1147 1     
     1143      1137      1142 1     
     1144      1148      1149 1     
     1145      1148      1150 1     
     1146      1148      1151 1     
     1147      1149      1152 1     
     1148      1149      1153 1     
     1149      1143      1148 1     
     1150      1154      1155 1     
     1151      1154      1156 1     
     1152      1154      1157 1     
     1153      1155      1158 1     
     1154      1155      1159 1     
     1155      1149      1154 1     
     1156      1160      1161 1     
     1157      1160      1162 1     
     1158      1160      1163 1     
     1159      1161      1164 1     
     1160      1161      1165 1     
     1161      1155      1160 1     
     1162      1166      1167 1     
     1163      1166      1168 1     
     1164      1166      1169 1     
     1165      1167      1170 1     
     1166      1167      1171 1     
     1167      1161      1166 1     
     1168      1172      1173 1     
     1169      1172      1174 1     
     1170      1172      1175 1     
     1171      1173      1176 1     
     1172      1173      1177 1     
     1173      1167      1172 1     
     1174      1178      1179 1     
     1175      1178      1180 1     
     1176      1178      1181 1     
     1177      1179      1182 1     
     1178      1179      1183 1     
     1179      1173      1178 1     
     1180      1184      1185 1     
     1181      1184      1186 1     
     1182      1184      1187 1     
     1183      1185      1188 1     
     1184      1185      1189 1     
     1185      1179      1184 1     
     1186      1190      1191 1     
     1187      1190      1192 1     
     1188      1190      1193 1     
     1189      1191      1194 1     
     1190      1191      1195 1     
     1191      1185      1190 1     
     1192      1196      1197 1     
     1193      1196      1198 1     
     1194      1196      1199 1     
     1195      1197      1200 1     
     1196      1197      1201 1     
     1197      1191      1196 1     
     1198      1202      1203 1     
     1199      1202      1204 1     
     1200      1202      1205 1     
     1201      1203      1206 1     
     1202      1203      1207 1     
     1203      1203      1208 1     
     1204      1197      1202 1     
     1205      1209      1210 1     
     1206      1209      1211 1     
     1207      1209      1212 1     
     1208      1209      1213 1     
     1209      1210      1214 1     
     1210      1210      1215 1     
     1211      1216      1217 1     
     1212      1216      1218 1     
     1213      1216      1219 1     
     1214      1217      1220 1     
     1215      1217      1221 1     
     1216      1210      1216 1     
     1217      1222      1223 1     
     1218      1222      1224 1     
     1219      1222      1225 1     
     1220      1223      1226 1     
     1221      1223      1227 1     
     1222      1217      1222 1     
     1223      1228      1229 1     
     1224      1228      1230 1     
     1225      1228      1231 1     
     1226      1229      1232 1     
     1227      1229      1233 1     
     1228      1223      1228 1     
     1229      1234      1235 1     
     1230      1234      1236 1     
     1231      1234      1237 1     
     1232      1235      1238 1     
     1233      1235      1239 1     
     1234      1229      1234 1     
     1235      1240      1241 1     
     1236      1240      1242 1     
     1237      1240      1243 1     
     1238      1241      1244 1     
     1239      1241      1245 1     
     1240      1235      1240 1     
     1241      1246      1247 1     
     1242      1246      1248 1     
     1243      1246      1249 1     
     1244      1247      1250 1     
     1245      1247      1251 1     
     1246      1241      1246 1     
     1247      1252      1253 1     
     1248      1252      1254 1     
     1249      1252      1255 1     
     1250      1253      1256 1     
     1251      1253      1257 1     
     1252      1247      1252 1     
     1253      1258      1259 1     
     1254      1258      1260 1     
     1255      1258      1261 1     
     1256      1259      1262 1     
     1257      1259      1263 1     
     1258      1253      1258 1     
     1259      1264      1265 1     
     1260      1264      1266 1     
     1261      1264      1267 1     
     1262      1265      1268 1     
     1263      1265      1269 1     
     1264      1259      1264 1     
     1265      1270      1271 1     
     1266      1270      1272 1     
     1267      1270      1273 1     
     1268      1271      1274 1     
     1269      1271      1275 1     
     1270      1265      1270 1     
     1271      1276      1277 1     
     1272      1276      1278 1     
     1273      1276      1279 1     
     1274      1277      1280 1     
     1275      1277      1281 1     
     1276      1271      1276 1     
     1277      1282      1283 1     
     1278      1282      1284 1     
     1279      1282      1285 1     
     1280      1283      1286 1     
     1281      1283      1287 1     
     1282      1277      1282 1     
     1283      1288      1289 1     
     1284      1288      1290 1     
     1285      1288      1291 1     
     1286      1289      1292 1     
     1287      1289      1293 1     
     1288      1283      1288 1     
     1289      1294      1295 1     
     1290      1294      1296 1     
     1291      1294      1297 1     
     1292      1295      1298 1     
     1293      1295      1299 1     
     1294      1289      1294 1     
     1295      1300      1301 1     
     1296      1300      1302 1     
     1297      1300      1303 1     
     1298      1301      1304 1     
     1299      1301      1305 1     
     1300      1295      1300 1     
     1301      1306      1307 1     
     1302      1306      1308 1     
     1303      1306      1309 1     
     1304      1307      1310 1     
     1305      1307      1311 1     
     1306      1301      1306 1     
     1307      1312      1313 1     
     1308      1312      1314 1     
     1309      1312      1315 1     
     1310      1313      1316 1     
     1311      1313      1317 1     
     1312      1307      1312 1     
     1313      1318      1319 1     
     1314      1318      1320 1     
     1315      1318      1321 1     
     1316      1319      1322 1     
     1317      1319      1323 1     
     1318      1313      1318 1     
     1319      1324      1325 1     
     1320      1324      1326 1     
     1321      1324      1327 1     
     1322      1325      1328 1     
     1323      1325      1329 1     
     1324      1319      1324 1     
     1325      1330      1331 1     
     1326      1330      1332 1     
     1327      1330      1333 1     
     1328      1331      1334 1     
     1329      1331      1335 1     
     1330      1325      1330 1     
     1331      1336      1337 1     
     1332      1336      1338 1     
     1333      1336      1339 1     
     1334      1337      1340 1     
     1335      1337      1341 1     
     1336      1331      1336 1     
     1337      1342      1343 1     
     1338      1342      1344 1     
     1339      1342      1345 1     
     1340      1343      1346 1     
     1341      1343      1347 1     
     1342      1337      1342 1     
     1343      1348      1349 1     
     1344      1348      1350 1     
     1345      1348      1351 1     
     1346      1349      1352 1     
     1347      1349      1353 1     
     1348      1343      1348 1     
     1349      1354      1355 1     
     1350      1354      1356 1     
     1351      1354      1357 1     
     1352      1355      1358 1     
     1353      1355      1359 1     
     1354      1349      1354 1     
     1355      1360      1361 1     
     1356      1360      1362 1     
     1357      1360      1363 1     
     1358      1361      1364 1     
     1359      1361      1365 1     
     1360      1355      1360 1     
     1361      1366      1367 1     
     1362      1366      1368 1     
     1363      1366      1369 1     
     1364      1367      1370 1     
     1365      1367      1371 1     
     1366      1361      1366 1     
     1367      1372      1373 1     
     1368      1372      1374 1     
     1369      1372      1375 1     
     1370      1373      1376 1     
     1371      1373      1377 1     
     1372      1367      1372 1     
     1373      1378      1379 1     
     1374      1378      1380 1     
     1375      1378      1381 1     
     1376      1379      1382 1     
     1377      1379      1383 1     
     1378      1373      1378 1     
     1379      1384      1385 1     
     1380      1384      1386 1     
     1381      1384      1387 1     
     1382      1385      1388 1     
     1383      1385      1389 1     
     1384      1379      1384 1     
     1385      1390      1391 1     
     1386      1390      1392 1     
     1387      1390      1393 1     
     1388      1391      1394 1     
     1389      1391      1395 1     
     1390      1385      1390 1     
     1391      1396      1397 1     
     1392      1396      1398 1     
     1393      1396      1399 1     
     1394      1397      1400 1     
     1395      1397      1401 1     
     1396      1391      1396 1     
     1397      1402      1403 1     
     1398      1402      1404 1     
     1399      1402      1405 1     
     1400      1403      1406 1     
     1401      1403      1407 1     
     1402      1397      1402 1     
     1403      1408      1409 1     
     1404      1408      1410 1     
     1405      1408      1411 1     
     1406      1409      1412 1     
     1407      1409      1413 1     
     1408      1403      1408 1     
     1409      1414      1415 1     
     1410      1414      1416 1     
     1411      1414      1417 1     
     1412      1415      1418 1     
     1413      1415      1419 1     
     1414      1409      1414 1     
     1415      1420      1421 1     
     1416      1420      1422 1     
     1417      1420      1423 1     
     1418      1421      1424 1     
     1419      1421      1425 1     
     1420      1415      1420 1     
     1421      1426      1427 1     
     1422      1426      1428 1     
     1423      1426      1429 1     
     1424      1427      1430 1     
     1425      1427      1431 1     
     1426      1421      1426 1     
     1427      1432      1433 1     
     1428      1432      1434 1     
     1429      1432      1435 1     
     1430      1433      1436 1     
     1431      1433      1437 1     
     1432      1427      1432 1     
     1433      1438      1439 1     
     1434      1438      1440 1     
     1435      1438      1441 1     
     1436      1439      1442 1     
     1437      1439      1443 1     
     1438      1433      1438 1     
     1439      1444      1445 1     
     1440      1444      1446 1     
     1441      1444      1447 1     
     1442      1445      1448 1     
     1443      1445      1449 1     
     1444      1439      1444 1     
     1445      1450      1451 1     
     1446      1450      1452 1     
     1447      1450      1453 1     
     1448      1451      1454 1     
     1449      1451      1455 1     
     1450      1445      1450 1     
     1451      1456      1457 1     
     1452      1456      1458 1     
     1453      1456      1459 1     
     1454      1457      1460 1     
     1455      1457      1461 1     
     1456      1451      1456 1     
     1457      1462      1463 1     
     1458      1462      1464 1     
     1459      1462      1465 1     
     1460      1463      1466 1     
     1461      1463      1467 1     
     1462      1457      1462 1     
     1463      1468      1469 1     
     1464      1468      1470 1     
     1465      1468      1471 1     
     1466      1469      1472 1     
     1467      1469      1473 1     
     1468      1463      1468 1     
     1469      1474      1475 1     
     1470      1474      1476 1     
     1471      1474      1477 1     
     1472      1475      1478 1     
     1473      1475      1479 1     
     1474      1469      1474 1     
     1475      1480      1481 1     
     1476      1480      1482 1     
     1477      1480      1483 1     
     1478      1481      1484 1     
     1479      1481      1485 1     
     1480      1475      1480 1     
     1481      1486      1487 1     
     1482      1486      1488 1     
     1483      1486      1489 1     
     1484      1487      1490 1     
     1485      1487      1491 1     
     1486      1481      1486 1     
     1487      1492      1493 1     
     1488      1492      1494 1     
     1489      1492      1495 1     
     1490      1493      1496 1     
     1491      1493      1497 1     
     1492      1487      1492 1     
     1493      1498      1499 1     
     1494      1498      1500 1     
     1495      1498      1501 1     
     1496      1499      1502 1     
     1497      1499      1503 1     
     1498      1493      1498 1     
     1499      1504      1505 1     
     1500      1504      1506 1     
     1501      1504      1507 1     
     1502      1505      1508 1     
     1503      1505      1509 1     
     1504      1505      1510 1     
     1505      1499      1504 1     
     1506      1511      1512 1     
     1507      1511      1513 1     
     1508      1511      1514 1     
     1509      1511      1515 1     
     1510      1512      1516 1     
     1511      1512      1517 1     
     1512      1518      1519 1     
     1513      1518      1520 1     
     1514      1518      1521 1     
     1515      1519      1522 1     
     1516      1519      1523 1     
     1517      1512      1518 1     
     1518      1524      1525 1     
     1519      1524      1526 1     
     1520      1524      1527 1     
     1521      1525      1528 1     
     1522      1525      1529 1     
     1523      1519      1524 1     
     1524      1530      1531 1     
     1525      1530      1532 1     
     1526      1530      1533 1     
     1527      1531      1534 1     
     1528      1531      1535 1     
     1529      1525      1530 1     
     1530      1536      1537 1     
     1531      1536      1538 1     
     1532      1536      1539 1     
     1533      1537      1540 1     
     1534      1537      1541 1     
     1535      1531      1536 1     
     1536      1542      1543 1     
     1537      1542      1544 1     
     1538      1542      1545 1     
     1539      1543      1546 1     
     1540      1543      1547 1     
     1541      1537      1542 1     
     1542      1548      1549 1     
     1543      1548      1550 1     
     1544      1548      1551 1     
     1545      1549      1552 1     
     1546      1549      1553 1     
     1547      1543      1548 1     
     1548      1554      1555 1     
     1549      1554      1556 1     
     1550      1554      1557 1     
     1551      1555      1558 1     
     1552      1555      1559 1     
     1553      1549      1554 1     
     1554      1560      1561 1     
     1555      1560      1562 1     
     1556      1560      1563 1     
     1557      1561      1564 1     
     1558      1561      1565 1     
     1559      1555      1560 1     
     1560      1566      1567 1     
     1561      1566      1568 1     
     1562      1566      1569 1     
     1563      1567      1570 1     
     1564      1567      1571 1     
     1565      1561      1566 1     
     1566      1572      1573 1     
     1567      1572      1574 1     
     1568      1572      1575 1     
     1569      1573      1576 1     
     1570      1573      1577 1     
     1571      1567      1572 1     
     1572      1578      1579 1     
     1573      1578      1580 1     
     1574      1578      1581 1     
     1575      1579      1582 1     
     1576      1579      1583 1     
     1577      1573      1578 1     
     1578      1584      1585 1     
     1579      1584      1586 1     
     1580      1584      1587 1     
     1581      1585      1588 1     
     1582      1585      1589 1     
     1583      1579      1584 1     
     1584      1590      1591 1     
     1585      1590      1592 1     
     1586      1590      1593 1     
     1587      1591      1594 1     
     1588      1591      1595 1     
     1589      1585      1590 1     
     1590      1596      1597 1     
     1591      1596      1598 1     
     1592      1596      1599 1     
     1593      1597      1600 1     
     1594      1597      1601 1     
     1595      1591      1596 1     
     1596      1602      1603 1     
     1597      1602      1604 1     
     1598      1602      1605 1     
     1599      1603      1606 1     
     1600      1603      1607 1     
     1601      1597      1602 1     
     1602      1608      1609 1     
     1603      1608      1610 1     
     1604      1608      1611 1     
     1605      1609      1612 1     
     1606      1609      1613 1     
     1607      1603      1608 1     
     1608      1614      1615 1     
     1609      1614      1616 1     
     1610      1614      1617 1     
     1611      1615      1618 1     
     1612      1615      1619 1     
     1613      1609      1614 1     
     1614      1620      1621 1     
     1615      1620      1622 1     
     1616      1620      1623 1     
     1617      1621      1624 1     
     1618      1621      1625 1     
     1619      1615      1620 1     
     1620      1626      1627 1     
     1621      1626      1628 1     
     1622      1626      1629 1     
     1623      1627      1630 1     
     1624      1627      1631 1     
     1625      1621      1626 1     
     1626      1632      1633 1     
     1627      1632      1634 1     
     1628      1632      1635 1     
     1629      1633      1636 1     
     1630      1633      1637 1     
     1631      1627      1632 1     
     1632      1638      1639 1     
     1633      1638      1640 1     
     1634      1638      1641 1     
     1635      1639      1642 1     
     1636      1639      1643 1     
     1637      1633      1638 1     
     1638      1644      1645 1     
     1639      1644      1646 1     
     1640      1644      1647 1     
     1641      1645      1648 1     
     1642      1645      1649 1     
     1643      1639      1644 1     
     1644      1650      1651 1     
     1645      1650      1652 1     
     1646      1650      1653 1     
     1647      1651      1654 1     
     1648      1651      1655 1     
     1649      1645      1650 1     
     1650      1656      1657 1     
     1651      1656      1658 1     
     1652      1656      1659 1     
     1653      1657      1660 1     
     1654      1657      1661 1     
     1655      1651      1656 1     
     1656      1662      1663 1     
     1657      1662      1664 1     
     1658      1662      1665 1     
     1659      1663      1666 1     
     1660      1663      1667 1     
     1661      1657      1662 1     
     1662      1668      1669 1     
     1663      1668      1670 1     
     1664      1668      1671 1     
     1665      1669      1672 1     
     1666      1669      1673 1     
     1667      1663      1668 1     
     1668      1674      1675 1     
     1669      1674      1676 1     
     1670      1674      1677 1     
     1671      1675      1678 1     
     1672      1675      1679 1     
     1673      1669      1674 1     
     1674      1680      1681 1     
     1675      1680      1682 1     
     1676      1680      1683 1     
     1677      1681      1684 1     
     1678      1681      1685 1     
     1679      1675      1680 1     
     1680      1686      1687 1     
     1681      1686      1688 1     
     1682      1686      1689 1     
     1683      1687      1690 1     
     1684      1687      1691 1     
     1685      1681      1686 1     
     1686      1692      1693 1     
     1687      1692      1694 1     
     1688      1692      1695 1     
     1689      1693      1696 1     
     1690      1693      1697 1     
     1691      1687      1692 1     
     1692      1698      1699 1     
     1693      1698      1700 1     
     1694      1698      1701 1     
     1695      1699      1702 1     
     1696      1699      1703 1     
     1697      1693      1698 1     
     1698      1704      1705 1     
     1699      1704      1706 1     
     1700      1704      1707 1     
     1701      1705      1708 1     
     1702      1705      1709 1     
     1703      1699      1704 1     
     1704      1710      1711 1     
     1705      1710      1712 1     
     1706      1710      1713 1     
     1707      1711      1714 1     
     1708      1711      1715 1     
     1709      1705      1710 1     
     1710      1716      1717 1     
     1711      1716      1718 1     
     1712      1716      1719 1     
     1713      1717      1720 1     
     1714      1717      1721 1     
     1715      1711      1716 1     
     1716      1722      1723 1     
     1717      1722      1724 1     
     1718      1722      1725 1     
     1719      1723      1726 1     
     1720      1723      1727 1     
     1721      1717      1722 1     
     1722      1728      1729 1     
     1723      1728      1730 1     
     1724      1728      1731 1     
     1725      1729      1732 1     
     1726      1729      1733 1     
     1727      1723      1728 1     
     1728      1734      1735 1     
     1729      1734      1736 1     
     1730      1734      1737 1     
     1731      1735      1738 1     
     1732      1735      1739 1     
     1733      1729      1734 1     
     1734      1740      1741 1     
     1735      1740      1742 1     
     1736      1740      1743 1     
     1737      1741      1744 1     
     1738      1741      1745 1     
     1739      1735      1740 1     
     1740      1746      1747 1     
     1741      1746      1748 1     
     1742      1746      1749 1     
     1743      1747      1750 1     
     1744      1747      1751 1     
     1745      1741      1746 1     
     1746      1752      1753 1     
     1747      1752      1754 1     
     1748      1752      1755 1     
     1749      1753      1756 1     
     1750      1753      1757 1     
     1751      1747      1752 1     
     1752      1758      1759 1     
     1753      1758      1760 1     
     1754      1758      1761 1     
     1755      1759      1762 1     
     1756      1759      1763 1     
     1757      1753      1758 1     
     1758      1764      1765 1     
     1759      1764      1766 1     
     1760      1764      1767 1     
     1761      1765      1768 1     
     1762      1765      1769 1     
     1763      1759      1764 1     
     1764      1770      1771 1     
     1765      1770      1772 1     
     1766      1770      1773 1     
     1767      1771      1774 1     
     1768      1771      1775 1     
     1769      1765      1770 1     
     1770      1776      1777 1     
     1771      1776      1778 1     
     1772      1776      1779 1     
     1773      1777      1780 1     
     1774      1777      1781 1     
     1775      1771      1776 1     
     1776      1782      1783 1     
     1777      1782      1784 1     
     1778      1782      1785 1     
     1779      1783      1786 1     
     1780      1783      1787 1     
     1781      1777      1782 1     
     1782      1788      1789 1     
     1783      1788      1790 1     
     1784      1788      1791 1     
     1785      1789      1792 1     
     1786      1789      1793 1     
     1787      1783      1788 1     
     1788      1794      1795 1     
     1789      1794      1796 1     
     1790      1794      1797 1     
     1791      1795      1798 1     
     1792      1795      1799 1     
     1793      1789      1794 1     
     1794      1800      1801 1     
     1795      1800      1802 1     
     1796      1800      1803 1     
     1797      1801      1804 1     
     1798      1801      1805 1     
     1799      1795      1800 1     
     1800      1806      1807 1     
     1801      1806      1808 1     
     1802      1806      1809 1     
     1803      1807      1810 1     
     1804      1807      1811 1     
     1805      1807      1812 1     
     1806      1801      1806 1     
     1807      1813      1814 1     
     1808      1813      1815 1     
     1809      1813      1816 1     
     1810      1813      1817 1     
     1811      1814      1818 1     
     1812      1814      1819 1     
     1813      1820      1821 1     
     1814      1820      1822 1     
     1815      1820      1823 1     
     1816      1821      1824 1     
     1817      1821      1825 1     
     1818      1814      1820 1     
     1819      1826      1827 1     
     1820      1826      1828 1     
     1821      1826      1829 1     
     1822      1827      1830 1     
     1823      1827      1831 1     
     1824      1821      1826 1     
     1825      1832      1833 1     
     1826      1832      1834 1     
     1827      1832      1835 1     
     1828      1833      1836 1     
     1829      1833      1837 1     
     1830      1827      1832 1     
     1831      1838      1839 1     
     1832      1838      1840 1     
     1833      1838      1841 1     
     1834      1839      1842 1     
     1835      1839      1843 1     
     1836      1833      1838 1     
     1837      1844      1845 1     
     1838      1844      1846 1     
     1839      1844      1847 1     
     1840      1845      1848 1     
     1841      1845      1849 1     
     1842      1839      1844 1     
     1843      1850      1851 1     
     1844      1850      1852 1     
     1845      1850      1853 1     
     1846      1851      1854 1     
     1847      1851      1855 1     
     1848      1845      1850 1     
     1849      1856      1857 1     
     1850      1856      1858 1     
     1851      1856      1859 1     
     1852      1857      1860 1     
     1853      1857      1861 1     
     1854      1851      1856 1     
     1855      1862      1863 1     
     1856      1862      1864 1     
     1857      1862      1865 1     
     1858      1863      1866 1     
     1859      1863      1867 1     
     1860      1857      1862 1     
     1861      1868      1869 1     
     1862      1868      1870 1     
     1863      1868      1871 1     
     1864      1869      1872 1     
     1865      1869      1873 1     
     1866      1863      1868 1     
     1867      1874      1875 1     
     1868      1874      1876 1     
     1869      1874      1877 1     
     1870      1875      1878 1     
     1871      1875      1879 1     
     1872      1869      1874 1     
     1873      1880      1881 1     
     1874      1880      1882 1     
     1875      1880      1883 1     
     1876      1881      1884 1     
     1877      1881      1885 1     
     1878      1875      1880 1     
     1879      1886      1887 1     
     1880      1886      1888 1     
     1881      1886      1889 1     
     1882      1887      1890 1     
     1883      1887      1891 1     
     1884      1881      1886 1     
     1885      1892      1893 1     
     1886      1892      1894 1     
     1887      1892      1895 1     
     1888      1893      1896 1     
     1889      1893      1897 1     
     1890      1887      1892 1     
     1891      1898      1899 1     
     1892      1898      1900 1     
     1893      1898      1901 1     
     1894      1899      1902 1     
     1895      1899      1903 1     
     1896      1893      1898 1     
     1897      1904      1905 1     
     1898      1904      1906 1     
     1899      1904      1907 1     
     1900      1905      1908 1     
     1901      1905      1909 1     
     1902      1899      1904 1     
     1903      1910      1911 1     
     1904      1910      1912 1     
     1905      1910      1913 1     
     1906      1911      1914 1     
     1907      1911      1915 1     
     1908      1905      1910 1     
     1909      1916      1917 1     
     1910      1916      1918 1     
     1911      1916      1919 1     
     1912      1917      1920 1     
     1913      1917      1921 1     
     1914      1911      1916 1     
     1915      1922      1923 1     
     1916      1922      1924 1     
     1917      1922      1925 1     
     1918      1923      1926 1     
     1919      1923      1927 1     
     1920      1917      1922 1     
     1921      1928      1929 1     
     1922      1928      1930 1     
     1923      1928      1931 1     
     1924      1929      1932 1     
     1925      1929      1933 1     
     1926      1923      1928 1     
     1927      1934      1935 1     
     1928      1934      1936 1     
     1929      1934      1937 1     
     1930      1935      1938 1     
     1931      1935      1939 1     
     1932      1929      1934 1     
     1933      1940      1941 1     
     1934      1940      1942 1     
     1935      1940      1943 1     
     1936      1941      1944 1     
     1937      1941      1945 1     
     1938      1935      1940 1     
     1939      1946      1947 1     
     1940      1946      1948 1     
     1941      1946      1949 1     
     1942      1947      1950 1     
     1943      1947      1951 1     
     1944      1941      1946 1     
     1945      1952      1953 1     
     1946      1952      1954 1     
     1947      1952      1955 1     
     1948      1953      1956 1     
     1949      1953      1957 1     
     1950      1947      1952 1     
     1951      1958      1959 1     
     1952      1958      1960 1     
     1953      1958      1961 1     
     1954      1959      1962 1     
     1955      1959      1963 1     
     1956      1953      1958 1     
     1957      1964      1965 1     
     1958      1964      1966 1     
     1959      1964      1967 1     
     1960      1965      1968 1     
     1961      1965      1969 1     
     1962      1959      1964 1     
     1963      1970      1971 1     
     1964      1970      1972 1     
     1965      1970      1973 1     
     1966      1971      1974 1     
     1967      1971      1975 1     
     1968      1965      1970 1     
     1969      1976      1977 1     
     1970      1976      1978 1     
     1971      1976      1979 1     
     1972      1977      1980 1     
     1973      1977      1981 1     
     1974      1971      1976 1     
     1975      1982      1983 1     
     1976      1982      1984 1     
     1977      1982      1985 1     
     1978      1983      1986 1     
     1979      1983      1987 1     
     1980      1977      1982 1     
     1981      1988      1989 1     
     1982      1988      1990 1     
     1983      1988      1991 1     
     1984      1989      1992 1     
     1985      1989      1993 1     
     1986      1983      1988 1     
     1987      1994      1995 1     
     1988      1994      1996 1     
     1989      1994      1997 1     
     1990      1995      1998 1     
     1991      1995      1999 1     
     1992      1989      1994 1     
     1993      2000      2001 1     
     1994      2000      2002 1     
     1995      2000      2003 1     
     1996      2001      2004 1     
     1997      2001      2005 1     
     1998      1995      2000 1     
     1999      2006      2007 1     
     2000      2006      2008 1     
     2001      2006      2009 1     
     2002      2007      2010 1     
     2003      2007      2011 1     
     2004      2001      2006 1     
     2005      2012      2013 1     
     2006      2012      2014 1     
     2007      2012      2015 1     
     2008      2013      2016 1     
     2009      2013      2017 1     
     2010      2007      2012 1     
     2011      2018      2019 1     
     2012      2018      2020 1     
     2013      2018      2021 1     
     2014      2019      2022 1     
     2015      2019      2023 1     
     2016      2013      2018 1     
     2017      2024      2025 1     
     2018      2024      2026 1     
     2019      2024      2027 1     
     2020      2025      2028 1     
     2021      2025      2029 1     
     2022      2019      2024 1     
     2023      2030      2031 1     
     2024      2030      2032 1     
     2025      2030      2033 1     
     2026      2031      2034 1     
     2027      2031      2035 1     
     2028      2025      2030 1     
     2029      2036      2037 1     
     2030      2036      2038 1     
     2031      2036      2039 1     
     2032      2037      2040 1     
     2033      2037      2041 1     
     2034      2031      2036 1     
     2035      2042      2043 1     
     2036      2042      2044 1     
     2037      2042      2045 1     
     2038      2043      2046 1     
     2039      2043      2047 1     
     2040      2037      2042 1     
     2041      2048      2049 1     
     2042      2048      2050 1     
     2043      2048      2051 1     
     2044      2049      2052 1     
     2045      2049      2053 1     
     2046      2043      2048 1     
     2047      2054      2055 1     
     2048      2054      2056 1     
     2049      2054      2057 1     
     2050      2055      2058 1     
     2051      2055      2059 1     
     2052      2049      2054 1     
     2053      2060      2061 1     
     2054      2060      2062 1     
     2055      2060      2063 1     
     2056      2061      2064 1     
     2057      2061      2065 1     
     2058      2055      2060 1     
     2059      2066      2067 1     
     2060      2066      2068 1     
     2061      2066      2069 1     
     2062      2067      2070 1     
     2063      2067      2071 1     
     2064      2061      2066 1     
     2065      2072      2073 1     
     2066      2072      2074 1     
     2067      2072      2075 1     
     2068      2073      2076 1     
     2069      2073      2077 1     
     2070      2067      2072 1     
     2071      2078      2079 1     
     2072      2078      2080 1     
     2073      2078      2081 1     
     2074      2079      2082 1     
     2075      2079      2083 1     
     2076      2073      2078 1     
     2077      2084      2085 1     
     2078      2084      2086 1     
     2079      2084      2087 1     
     2080      2085      2088 1     
     2081      2085      2089 1     
     2082      2079      2084 1     
     2083      2090      2091 1     
     2084      2090      2092 1     
     2085      2090      2093 1     
     2086      2091      2094 1     
     2087      2091      2095 1     
     2088      2085      2090 1     
     2089      2096      2097 1     
     2090      2096      2098 1     
     2091      2096      2099 1     
     2092      2097      2100 1     
     2093      2097      2101 1     
     2094      2091      2096 1     
     2095      2102      2103 1     
     2096      2102      2104 1     
     2097      2102      2105 1     
     2098      2103      2106 1     
     2099      2103      2107 1     
     2100      2097      2102 1     
     2101      2108      2109 1     
     2102      2108      2110 1     
     2103      2108      2111 1     
     2104      2109      2112 1     
     2105      2109      2113 1     
     2106      2109      2114 1     
     2107      2103      2108 1     
     2108      2115      2116 1     
     2109      2115      2117 1     
     2110      2115      2118 1     
     2111      2115      2119 1     
     2112      2116      2120 1     
     2113      2116      2121 1     
     2114      2122      2123 1     
     2115      2122      2124 1     
     2116      2122      2125 1     
     2117      2123      2126 1     
     2118      2123      2127 1     
     2119      2116      2122 1     
     2120      2128      2129 1     
     2121      2128      2130 1     
     2122      2128      2131 1     
     2123      2129      2132 1     
     2124      2129      2133 1     
     2125      2123      2128 1     
     2126      2134      2135 1     
     2127      2134      2136 1     
     2128      2134      2137 1     
     2129      2135      2138 1     
     2130      2135      2139 1     
     2131      2129      2134 1     
     2132      2140      2141 1     
     2133      2140      2142 1     
     2134      2140      2143 1     
     2135      2141      2144 1     
     2136      2141      2145 1     
     2137      2135      2140 1     
     2138      2146      2147 1     
     2139      2146      2148 1     
     2140      2146      2149 1     
     2141      2147      2150 1     
     2142      2147      2151 1     
     2143      2141      2146 1     
     2144      2152      2153 1     
     2145      2152      2154 1     
     2146      2152      2155 1     
     2147      2153      2156 1     
     2148      2153      2157 1     
     2149      2147      2152 1     
     2150      2158      2159 1     
     2151      2158      2160 1     
     2152      2158      2161 1     
     2153      2159      2162 1     
     2154      2159      2163 1     
     2155      2153      2158 1     
     2156      2164      2165 1     
     2157      2164      2166 1     
     2158      2164      2167 1     
     2159      2165      2168 1     
     2160      2165      2169 1     
     2161      2159      2164 1     
     2162      2170      2171 1     
     2163      2170      2172 1     
     2164      2170      2173 1     
     2165      2171      2174 1     
     2166      2171      2175 1     
     2167      2165      2170 1     
     2168      2176      2177 1     
     2169      2176      2178 1     
     2170      2176      2179 1     
     2171      2177      2180 1     
     2172      2177      2181 1     
     2173      2171      2176 1     
     2174      2182      2183 1     
     2175      2182      2184 1     
     2176      2182      2185 1     
     2177      2183      2186 1     
     2178      2183      2187 1     
     2179      2177      2182 1     
     2180      2188      2189 1     
     2181      2188      2190 1     
     2182      2188      2191 1     
     2183      2189      2192 1     
     2184      2189      2193 1     
     2185      2183      2188 1     
     2186      2194      2195 1     
     2187      2194      2196 1     
     2188      2194      2197 1     
     2189      2195      2198 1     
     2190      2195      2199 1     
     2191      2189      2194 1     
     2192      2200      2201 1     
     2193      2200      2202 1     
     2194      2200      2203 1     
     2195      2201      2204 1     
     2196      2201      2205 1     
     2197      2195      2200 1     
     2198      2206      2207 1     
     2199      2206      2208 1     
     2200      2206      2209 1     
     2201      2207      2210 1     
     2202      2207      2211 1     
     2203      2201      2206 1     
     2204      2212      2213 1     
     2205      2212      2214 1     
     2206      2212      2215 1     
     2207      2213      2216 1     
     2208      2213      2217 1     
     2209      2207      2212 1     
     2210      2218      2219 1     
     2211      2218      2220 1     
     2212      2218      2221 1     
     2213      2219      2222 1     
     2214      2219      2223 1     
     2215      2213      2218 1     
     2216      2224      2225 1     
     2217      2224      2226 1     
     2218      2224      2227 1     
     2219      2225      2228 1     
     2220      2225      2229 1     
     2221      2219      2224 1     
     2222      2230      2231 1     
     2223      2230      2232 1     
     2224      2230      2233 1     
     2225      2231      2234 1     
     2226      2231      2235 1     
     2227      2225      2230 1     
     2228      2236      2237 1     
     2229      2236      2238 1     
     2230      2236      2239 1     
     2231      2237      2240 1     
     2232      2237      2241 1     
     2233      2231      2236 1     
     2234      2242      2243 1     
     2235      2242      2244 1     
     2236      2242      2245 1     
     2237      2243      2246 1     
     2238      2243      2247 1     
     2239      2237      2242 1     
     2240      2248      2249 1     
     2241      2248      2250 1     
     2242      2248      2251 1     
     2243      2249      2252 1     
     2244      2249      2253 1     
     2245      2243      2248 1     
     2246      2254      2255 1     
     2247      2254      2256 1     
     2248      2254      2257 1     
     2249      2255      2258 1     
     2250      2255      2259 1     
     2251      2249      2254 1     
     2252      2260      2261 1     
     2253      2260      2262 1     
     2254      2260      2263 1     
     2255      2261      2264 1     
     2256      2261      2265 1     
     2257      2255      2260 1     
     2258      2266      2267 1     
     2259      2266      2268 1     
     2260      2266      2269 1     
     2261      2267      2270 1     
     2262      2267      2271 1     
     2263      2261      2266 1     
     2264      2272      2273 1     
     2265      2272      2274 1     
     2266      2272      2275 1     
     2267      2273      2276 1     
     2268      2273      2277 1     
     2269      2267      2272 1     
     2270      2278      2279 1     
     2271      2278      2280 1     
     2272      2278      2281 1     
     2273      2279      2282 1     
     2274      2279      2283 1     
     2275      2273      2278 1     
     2276      2284      2285 1     
     2277      2284      2286 1     
     2278      2284      2287 1     
     2279      2285      2288 1     
     2280      2285      2289 1     
     2281      2279      2284 1     
     2282      2290      2291 1     
     2283      2290      2292 1     
     2284      2290      2293 1     
     2285      2291      2294 1     
     2286      2291      2295 1     
     2287      2285      2290 1     
     2288      2296      2297 1     
     2289      2296      2298 1     
     2290      2296      2299 1     
     2291      2297      2300 1     
     2292      2297      2301 1     
     2293      2291      2296 1     
     2294      2302      2303 1     
     2295      2302      2304 1     
     2296      2302      2305 1     
     2297      2303      2306 1     
     2298      2303      2307 1     
     2299      2297      2302 1     
     2300      2308      2309 1     
     2301      2308      2310 1     
     2302      2308      2311 1     
     2303      2309      2312 1     
     2304      2309      2313 1     
     2305      2303      2308 1     
     2306      2314      2315 1     
     2307      2314      2316 1     
     2308      2314      2317 1     
     2309      2315      2318 1     
     2310      2315      2319 1     
     2311      2309      2314 1     
     2312      2320      2321 1     
     2313      2320      2322 1     
     2314      2320      2323 1     
     2315      2321      2324 1     
     2316      2321      2325 1     
     2317      2315      2320 1     
     2318      2326      2327 1     
     2319      2326      2328 1     
     2320      2326      2329 1     
     2321      2327      2330 1     
     2322      2327      2331 1     
     2323      2321      2326 1     
     2324      2332      2333 1     
     2325      2332      2334 1     
     2326      2332      2335 1     
     2327      2333      2336 1     
     2328      2333      2337 1     
     2329      2327      2332 1     
     2330      2338      2339 1     
     2331      2338      2340 1     
     2332      2338      2341 1     
     2333      2339      2342 1     
     2334      2339      2343 1     
     2335      2333      2338 1     
     2336      2344      2345 1     
     2337      2344      2346 1     
     2338      2344      2347 1     
     2339      2345      2348 1     
     2340      2345      2349 1     
     2341      2339      2344 1     
     2342      2350      2351 1     
     2343      2350      2352 1     
     2344      2350      2353 1     
     2345      2351      2354 1     
     2346      2351      2355 1     
     2347      2345      2350 1     
     2348      2356      2357 1     
     2349      2356      2358 1     
     2350      2356      2359 1     
     2351      2357      2360 1     
     2352      2357      2361 1     
     2353      2351      2356 1     
     2354      2362      2363 1     
     2355      2362      2364 1     
     2356      2362      2365 1     
     2357      2363      2366 1     
     2358      2363      2367 1     
     2359      2357      2362 1     
     2360      2368      2369 1     
     2361      2368      2370 1     
     2362      2368      2371 1     
     2363      2369      2372 1     
     2364      2369      2373 1     
     2365      2363      2368 1     
     2366      2374      2375 1     
     2367      2374      2376 1     
     2368      2374      2377 1     
     2369      2375      2378 1     
     2370      2375      2379 1     
     2371      2369      2374 1     
     2372      2380      2381 1     
     2373      2380      2382 1     
     2374      2380      2383 1     
     2375      2381      2384 1     
     2376      2381      2385 1     
     2377      2375      2380 1     
     2378      2386      2387 1     
     2379      2386      2388 1     
     2380      2386      2389 1     
     2381      2387      2390 1     
     2382      2387      2391 1     
     2383      2381      2386 1     
     2384      2392      2393 1     
     2385      2392      2394 1     
     2386      2392      2395 1     
     2387      2393      2396 1     
     2388      2393      2397 1     
     2389      2387      2392 1     
     2390      2398      2399 1     
     2391      2398      2400 1     
     2392      2398      2401 1     
     2393      2399      2402 1     
     2394      2399      2403 1     
     2395      2393      2398 1     
     2396      2404      2405 1     
     2397      2404      2406 1     
     2398      2404      2407 1     
     2399      2405      2408 1     
     2400      2405      2409 1     
     2401      2399      2404 1     
     2402      2410      2411 1     
     2403      2410      2412 1     
     2404      2410      2413 1     
     2405      2411      2414 1     
     2406      2411      2415 1     
     2407      2411      2416 1     
     2408      2405      2410 1     
     2409      2417      2418 1     
     2410      2417      2419 1     
     2411      2417      2420 1     
     2412      2417      2421 1     
     2413      2418      2422 1     
     2414      2418      2423 1     
     2415      2424      2425 1     
     2416      2424      2426 1     
     2417      2424      2427 1     
     2418      2425      2428 1     
     2419      2425      2429 1     
     2420      2418      2424 1     
     2421      2430      2431 1     
     2422      2430      2432 1     
     2423      2430      2433 1     
     2424      2431      2434 1     
     2425      2431      2435 1     
     2426      2425      2430 1     
     2427      2436      2437 1     
     2428      2436      2438 1     
     2429      2436      2439 1     
     2430      2437      2440 1     
     2431      2437      2441 1     
     2432      2431      2436 1     
     2433      2442      2443 1     
     2434      2442      2444 1     
     2435      2442      2445 1     
     2436      2443      2446 1     
     2437      2443      2447 1     
     2438      2437      2442 1     
     2439      2448      2449 1     
     2440      2448      2450 1     
     2441      2448      2451 1     
     2442      2449      2452 1     
     2443      2449      2453 1     
     2444      2443      2448 1     
     2445      2454      2455 1     
     2446      2454      2456 1     
     2447      2454      2457 1     
     2448      2455      2458 1     
     2449      2455      2459 1     
     2450      2449      2454 1     
     2451      2460      2461 1     
     2452      2460      2462 1     
     2453      2460      2463 1     
     2454      2461      2464 1     
     2455      2461      2465 1     
     2456      2455      2460 1     
     2457      2466      2467 1     
     2458      2466      2468 1     
     2459      2466      2469 1     
     2460      2467      2470 1     
     2461      2467      2471 1     
     2462      2461      2466 1     
     2463      2472      2473 1     
     2464      2472      2474 1     
     2465      2472      2475 1     
     2466      2473      2476 1     
     2467      2473      2477 1     
     2468      2467      2472 1     
     2469      2478      2479 1     
     2470      2478      2480 1     
     2471      2478      2481 1     
     2472      2479      2482 1     
     2473      2479      2483 1     
     2474      2473      2478 1     
     2475      2484      2485 1     
     2476      2484      2486 1     
     2477      2484      2487 1     
     2478      2485      2488 1     
     2479      2485      2489 1     
     2480      2479      2484 1     
     2481      2490      2491 1     
     2482      2490      2492 1     
     2483      2490      2493 1     
     2484      2491      2494 1     
     2485      2491      2495 1     
     2486      2485      2490 1     
     2487      2496      2497 1     
     2488      2496      2498 1     
     2489      2496      2499 1     
     2490      2497      2500 1     
     2491      2497      2501 1     
     2492      2491      2496 1     
     2493      2502      2503 1     
     2494      2502      2504 1     
     2495      2502      2505 1     
     2496      2503      2506 1     
     2497      2503      2507 1     
     2498      2497      2502 1     
     2499      2508      2509 1     
     2500      2508      2510 1     
     2501      2508      2511 1     
     2502      2509      2512 1     
     2503      2509      2513 1     
     2504      2503      2508 1     
     2505      2514      2515 1     
     2506      2514      2516 1     
     2507      2514      2517 1     
     2508      2515      2518 1     
     2509      2515      2519 1     
     2510      2509      2514 1     
     2511      2520      2521 1     
     2512      2520      2522 1     
     2513      2520      2523 1     
     2514      2521      2524 1     
     2515      2521      2525 1     
     2516      2515      2520 1     
     2517      2526      2527 1     
     2518      2526      2528 1     
     2519      2526      2529 1     
     2520      2527      2530 1     
     2521      2527      2531 1     
     2522      2521      2526 1     
     2523      2532      2533 1     
     2524      2532      2534 1     
     2525      2532      2535 1     
     2526      2533      2536 1     
     2527      2533      2537 1     
     2528      2527      2532 1     
     2529      2538      2539 1     
     2530      2538      2540 1     
     2531      2538      2541 1     
     2532      2539      2542 1     
     2533      2539      2543 1     
     2534      2533      2538 1     
     2535      2544      2545 1     
     2536      2544      2546 1     
     2537      2544      2547 1     
     2538      2545      2548 1     
     2539      2545      2549 1     
     2540      2539      2544 1     
     2541      2550      2551 1     
     2542      2550      2552 1     
     2543      2550      2553 1     
     2544      2551      2554 1     
     2545      2551      2555 1     
     2546      2545      2550 1     
     2547      2556      2557 1     
     2548      2556      2558 1     
     2549      2556      2559 1     
     2550      2557      2560 1     
     2551      2557      2561 1     
     2552      2551      2556 1     
     2553      2562      2563 1     
     2554      2562      2564 1     
     2555      2562      2565 1     
     2556      2563      2566 1     
     2557      2563      2567 1     
     2558      2557      2562 1     
     2559      2568      2569 1     
     2560      2568      2570 1     
     2561      2568      2571 1     
     2562      2569      2572 1     
     2563      2569      2573 1     
     2564      2563      2568 1     
     2565      2574      2575 1     
     2566      2574      2576 1     
     2567      2574      2577 1     
     2568      2575      2578 1     
     2569      2575      2579 1     
     2570      2569      2574 1     
     2571      2580      2581 1     
     2572      2580      2582 1     
     2573      2580      2583 1     
     2574      2581      2584 1     
     2575      2581      2585 1     
     2576      2575      2580 1     
     2577      2586      2587 1     
     2578      2586      2588 1     
     2579      2586      2589 1     
     2580      2587      2590 1     
     2581      2587      2591 1     
     2582      2581      2586 1     
     2583      2592      2593 1     
     2584      2592      2594 1     
     2585      2592      2595 1     
     2586      2593      2596 1     
     2587      2593      2597 1     
     2588      2587      2592 1     
     2589      2598      2599 1     
     2590      2598      2600 1     
     2591      2598      2601 1     
     2592      2599      2602 1     
     2593      2599      2603 1     
     2594      2593      2598 1     
     2595      2604      2605 1     
     2596      2604      2606 1     
     2597      2604      2607 1     
     2598      2605      2608 1     
     2599      2605      2609 1     
     2600      2599      2604 1     
     2601      2610      2611 1     
     2602      2610      2612 1     
     2603      2610      2613 1     
     2604      2611      2614 1     
     2605      2611      2615 1     
     2606      2605      2610 1     
     2607      2616      2617 1     
     2608      2616      2618 1     
     2609      2616      2619 1     
     2610      2617      2620 1     
     2611      2617      2621 1     
     2612      2611      2616 1     
     2613      2622      2623 1     
     2614      2622      2624 1     
     2615      2622      2625 1     
     2616      2623      2626 1     
     2617      2623      2627 1     
     2618      2617      2622 1     
     2619      2628      2629 1     
     2620      2628      2630 1     
     2621      2628      2631 1     
     2622      2629      2632 1     
     2623      2629      2633 1     
     2624      2623      2628 1     
     2625      2634      2635 1     
     2626      2634      2636 1     
     2627      2634      2637 1     
     2628      2635      2638 1     
     2629      2635      2639 1     
     2630      2629      2634 1     
     2631      2640      2641 1     
     2632      2640      2642 1     
     2633      2640      2643 1     
     2634      2641      2644 1     
     2635      2641      2645 1     
     2636      2635      2640 1     
     2637      2646      2647 1     
     2638      2646      2648 1     
     2639      2646      2649 1     
     2640      2647      2650 1     
     2641      2647      2651 1     
     2642      2641      2646 1     
     2643      2652      2653 1     
     2644      2652      2654 1     
     2645      2652      2655 1     
     2646      2653      2656 1     
     2647      2653      2657 1     
     2648      2647      2652 1     
     2649      2658      2659 1     
     2650      2658      2660 1     
     2651      2658      2661 1     
     2652      2659      2662 1     
     2653      2659      2663 1     
     2654      2653      2658 1     
     2655      2664      2665 1     
     2656      2664      2666 1     
     2657      2664      2667 1     
     2658      2665      2668 1     
     2659      2665      2669 1     
     2660      2659      2664 1     
     2661      2670      2671 1     
     2662      2670      2672 1     
     2663      2670      2673 1     
     2664      2671      2674 1     
     2665      2671      2675 1     
     2666      2665      2670 1     
     2667      2676      2677 1     
     2668      2676      2678 1     
     2669      2676      2679 1     
     2670      2677      2680 1     
     2671      2677      2681 1     
     2672      2671      2676 1     
     2673      2682      2683 1     
     2674      2682      2684 1     
     2675      2682      2685 1     
     2676      2683      2686 1     
     2677      2683      2687 1     
     2678      2677      2682 1     
     2679      2688      2689 1     
     2680      2688      2690 1     
     2681      2688      2691 1     
     2682      2689      2692 1     
     2683      2689      2693 1     
     2684      2683      2688 1     
     2685      2694      2695 1     
     2686      2694      2696 1     
     2687      2694      2697 1     
     2688      2695      2698 1     
     2689      2695      2699 1     
     2690      2689      2694 1     
     2691      2700      2701 1     
     2692      2700      2702 1     
     2693      2700      2703 1     
     2694      2701      2704 1     
     2695      2701      2705 1     
     2696      2695      2700 1     
     2697      2706      2707 1     
     2698      2706      2708 1     
     2699      2706      2709 1     
     2700      2707      2710 1     
     2701      2707      2711 1     
     2702      2701      2706 1     
     2703      2712      2713 1     
     2704      2712      2714 1     
     2705      2712      2715 1     
     2706      2713      2716 1     
     2707      2713      2717 1     
     2708      2713      2718 1     
     2709      2707      2712 1     
     2710      2719      2720 1     
     2711      2719      2721 1     
     2712      2719      2722 1     
     2713      2719      2723 1     
     2714      2720      2724 1     
     2715      2720      2725 1     
     2716      2726      2727 1     
     2717      2726      2728 1     
     2718      2726      2729 1     
     2719      2727      2730 1     
     2720      2727      2731 1     
     2721      2720      2726 1     
     2722      2732      2733 1     
     2723      2732      2734 1     
     2724      2732      2735 1     
     2725      2733      2736 1     
     2726      2733      2737 1     
     2727      2727      2732 1     
     2728      2738      2739 1     
     2729      2738      2740 1     
     2730      2738      2741 1     
     2731      2739      2742 1     
     2732      2739      2743 1     
     2733      2733      2738 1     
     2734      2744      2745 1     
     2735      2744      2746 1     
     2736      2744      2747 1     
     2737      2745      2748 1     
     2738      2745      2749 1     
     2739      2739      2744 1     
     2740      2750      2751 1     
     2741      2750      2752 1     
     2742      2750      2753 1     
     2743      2751      2754 1     
     2744      2751      2755 1     
     2745      2745      2750 1     
     2746      2756      2757 1     
     2747      2756      2758 1     
     2748      2756      2759 1     
     2749      2757      2760 1     
     2750      2757      2761 1     
     2751      2751      2756 1     
     2752      2762      2763 1     
     2753      2762      2764 1     
     2754      2762      2765 1     
     2755      2763      2766 1     
     2756      2763      2767 1     
     2757      2757      2762 1     
     2758      2768      2769 1     
     2759      2768      2770 1     
     2760      2768      2771 1     
     2761      2769      2772 1     
     2762      2769      2773 1     
     2763      2763      2768 1     
     2764      2774      2775 1     
     2765      2774      2776 1     
     2766      2774      2777 1     
     2767      2775      2778 1     
     2768      2775      2779 1     
     2769      2769      2774 1     
     2770      2780      2781 1     
     2771      2780      2782 1     
     2772      2780      2783 1     
     2773      2781      2784 1     
     2774      2781      2785 1     
     2775      2775      2780 1     
     2776      2786      2787 1     
     2777      2786      2788 1     
     2778      2786      2789 1     
     2779      2787      2790 1     
     2780      2787      2791 1     
     2781      2781      2786 1     
     2782      2792      2793 1     
     2783      2792      2794 1     
     2784      2792      2795 1     
     2785      2793      2796 1     
     2786      2793      2797 1     
     2787      2787      2792 1     
     2788      2798      2799 1     
     2789      2798      2800 1     
     2790      2798      2801 1     
     2791      2799      2802 1     
     2792      2799      2803 1     
     2793      2793      2798 1     
     2794      2804      2805 1     
     2795      2804      2806 1     
     2796      2804      2807 1     
     2797      2805      2808 1     
     2798      2805      2809 1     
     2799      2799      2804 1     
     2800      2810      2811 1     
     2801      2810      2812 1     
     2802      2810      2813 1     
     2803      2811      2814 1     
     2804      2811      2815 1     
     2805      2805      2810 1     
     2806      2816      2817 1     
     2807      2816      2818 1     
     2808      2816      2819 1     
     2809      2817      2820 1     
     2810      2817      2821 1     
     2811      2811      2816 1     
     2812      2822      2823 1     
     2813      2822      2824 1     
     2814      2822      2825 1     
     2815      2823      2826 1     
     2816      2823      2827 1     
     2817      2817      2822 1     
     2818      2828      2829 1     
     2819      2828      2830 1     
     2820      2828      2831 1     
     2821      2829      2832 1     
     2822      2829      2833 1     
     2823      2823      2828 1     
     2824      2834      2835 1     
     2825      2834      2836 1     
     2826      2834      2837 1     
     2827      2835      2838 1     
     2828      2835      2839 1     
     2829      2829      2834 1     
     2830      2840      2841 1     
     2831      2840      2842 1     
     2832      2840      2843 1     
     2833      2841      2844 1     
     2834      2841      2845 1     
     2835      2835      2840 1     
     2836      2846      2847 1     
     2837      2846      2848 1     
     2838      2846      2849 1     
     2839      2847      2850 1     
     2840      2847      2851 1     
     2841      2841      2846 1     
     2842      2852      2853 1     
     2843      2852      2854 1     
     2844      2852      2855 1     
     2845      2853      2856 1     
     2846      2853      2857 1     
     2847      2847      2852 1     
     2848      2858      2859 1     
     2849      2858      2860 1     
     2850      2858      2861 1     
     2851      2859      2862 1     
     2852      2859      2863 1     
     2853      2853      2858 1     
     2854      2864      2865 1     
     2855      2864      2866 1     
     2856      2864      2867 1     
     2857      2865      2868 1     
     2858      2865      2869 1     
     2859      2859      2864 1     
     2860      2870      2871 1     
     2861      2870      2872 1     
     2862      2870      2873 1     
     2863      2871      2874 1     
     2864      2871      2875 1     
     2865      2865      2870 1     
     2866      2876      2877 1     
     2867      2876      2878 1     
     2868      2876      2879 1     
     2869      2877      2880 1     
     2870      2877      2881 1     
     2871      2871      2876 1     
     2872      2882      2883 1     
     2873      2882      2884 1     
     2874      2882      2885 1     
     2875      2883      2886 1     
     2876      2883      2887 1     
     2877      2877      2882 1     
     2878      2888      2889 1     
     2879      2888      2890 1     
     2880      2888      2891 1     
     2881      2889      2892 1     
     2882      2889      2893 1     
     2883      2883      2888 1     
     2884      2894      2895 1     
     2885      2894      2896 1     
     2886      2894      2897 1     
     2887      2895      2898 1     
     2888      2895      2899 1     
     2889      2889      2894 1     
     2890      2900      2901 1     
     2891      2900      2902 1     
     2892      2900      2903 1     
     2893      2901      2904 1     
     2894      2901      2905 1     
     2895      2895      2900 1     
     2896      2906      2907 1     
     2897      2906      2908 1     
     2898      2906      2909 1     
     2899      2907      2910 1     
     2900      2907      2911 1     
     2901      2901      2906 1     
     2902      2912      2913 1     
     2903      2912      2914 1     
     2904      2912      2915 1     
     2905      2913      2916 1     
     2906      2913      2917 1     
     2907      2907      2912 1     
     2908      2918      2919 1     
     2909      2918      2920 1     
     2910      2918      2921 1     
     2911      2919      2922 1     
     2912      2919      2923 1     
     2913      2913      2918 1     
     2914      2924      2925 1     
     2915      2924      2926 1     
     2916      2924      2927 1     
     2917      2925      2928 1     
     2918      2925      2929 1     
     2919      2919      2924 1     
     2920      2930      2931 1     
     2921      2930      2932 1     
     2922      2930      2933 1     
     2923      2931      2934 1     
     2924      2931      2935 1     
     2925      2925      2930 1     
     2926      2936      2937 1     
     2927      2936      2938 1     
     2928      2936      2939 1     
     2929      2937      2940 1     
     2930      2937      2941 1     
     2931      2931      2936 1     
     2932      2942      2943 1     
     2933      2942      2944 1     
     2934      2942      2945 1     
     2935      2943      2946 1     
     2936      2943      2947 1     
     2937      2937      2942 1     
     2938      2948      2949 1     
     2939      2948      2950 1     
     2940      2948      2951 1     
     2941      2949      2952 1     
     2942      2949      2953 1     
     2943      2943      2948 1     
     2944      2954      2955 1     
     2945      2954      2956 1     
     2946      2954      2957 1     
     2947      2955      2958 1     
     2948      2955      2959 1     
     2949      2949      2954 1     
     2950      2960      2961 1     
     2951      2960      2962 1     
     2952      2960      2963 1     
     2953      2961      2964 1     
     2954      2961      2965 1     
     2955      2955      2960 1     
     2956      2966      2967 1     
     2957      2966      2968 1     
     2958      2966      2969 1     
     2959      2967      2970 1     
     2960      2967      2971 1     
     2961      2961      2966 1     
     2962      2972      2973 1     
     2963      2972      2974 1     
     2964      2972      2975 1     
     2965      2973      2976 1     
     2966      2973      2977 1     
     2967      2967      2972 1     
     2968      2978      2979 1     
     2969      2978      2980 1     
     2970      2978      2981 1     
     2971      2979      2982 1     
     2972      2979      2983 1     
     2973      2973      2978 1     
     2974      2984      2985 1     
     2975      2984      2986 1     
     2976      2984      2987 1     
     2977      2985      2988 1     
     2978      2985      2989 1     
     2979      2979      2984 1     
     2980      2990      2991 1     
     2981      2990      2992 1     
     2982      2990      2993 1     
     2983      2991      2994 1     
     2984      2991      2995 1     
     2985      2985      2990 1     
     2986      2996      2997 1     
     2987      2996      2998 1     
     2988      2996      2999 1     
     2989      2997      3000 1     
     2990      2997      3001 1     
     2991      2991      2996 1     
     2992      3002      3003 1     
     2993      3002      3004 1     
     2994      3002      3005 1     
     2995      3003      3006 1     
     2996      3003      3007 1     
     2997      2997      3002 1     
     2998      3008      3009 1     
     2999      3008      3010 1     
     3000      3008      3011 1     
     3001      3009      3012 1     
     3002      3009      3013 1     
     3003      3003      3008 1     
     3004      3014      3015 1     
     3005      3014      3016 1     
     3006      3014      3017 1     
     3007      3015      3018 1     
     3008      3015      3019 1     
     3009      3015      3020 1     
     3010      3009      3014 1     
     3011      3021      3022 1     
     3012      3021      3023 1     
     3013      3021      3024 1     
     3014      3021      3025 1     
     3015      3022      3026 1     
     3016      3022      3027 1     
     3017      3028      3029 1     
     3018      3028      3030 1     
     3019      3028      3031 1     
     3020      3029      3032 1     
     3021      3029      3033 1     
     3022      3022      3028 1     
     3023      3034      3035 1     
     3024      3034      3036 1     
     3025      3034      3037 1     
     3026      3035      3038 1     
     3027      3035      3039 1     
     3028      3029      3034 1     
     3029      3040      3041 1     
     3030      3040      3042 1     
     3031      3040      3043 1     
     3032      3041      3044 1     
     3033      3041      3045 1     
     3034      3035      3040 1     
     3035      3046      3047 1     
     3036      3046      3048 1     
     3037      3046      3049 1     
     3038      3047      3050 1     
     3039      3047      3051 1     
     3040      3041      3046 1     
     3041      3052      3053 1     
     3042      3052      3054 1     
     3043      3052      3055 1     
     3044      3053      3056 1     
     3045      3053      3057 1     
     3046      3047      3052 1     
     3047      3058      3059 1     
     3048      3058      3060 1     
     3049      3058      3061 1     
     3050      3059      3062 1     
     3051      3059      3063 1     
     3052      3053      3058 1     
     3053      3064      3065 1     
     3054      3064      3066 1     
     3055      3064      3067 1     
     3056      3065      3068 1     
     3057      3065      3069 1     
     3058      3059      3064 1     
     3059      3070      3071 1     
     3060      3070      3072 1     
     3061      3070      3073 1     
     3062      3071      3074 1     
     3063      3071      3075 1     
     3064      3065      3070 1     
     3065      3076      3077 1     
     3066      3076      3078 1     
     3067      3076      3079 1     
     3068      3077      3080 1     
     3069      3077      3081 1     
     3070      3071      3076 1     
     3071      3082      3083 1     
     3072      3082      3084 1     
     3073      3082      3085 1     
     3074      3083      3086 1     
     3075      3083      3087 1     
     3076      3077      3082 1     
     3077      3088      3089 1     
     3078      3088      3090 1     
     3079      3088      3091 1     
     3080      3089      3092 1     
     3081      3089      3093 1     
     3082      3083      3088 1     
     3083      3094      3095 1     
     3084      3094      3096 1     
     3085      3094      3097 1     
     3086      3095      3098 1     
     3087      3095      3099 1     
     3088      3089      3094 1     
     3089      3100      3101 1     
     3090      3100      3102 1     
     3091      3100      3103 1     
     3092      3101      3104 1     
     3093      3101      3105 1     
     3094      3095      3100 1     
     3095      3106      3107 1     
     3096      3106      3108 1     
     3097      3106      3109 1     
     3098      3107      3110 1     
     3099      3107      3111 1     
     3100      3101      3106 1     
     3101      3112      3113 1     
     3102      3112      3114 1     
     3103      3112      3115 1     
     3104      3113      3116 1     
     3105      3113      3117 1     
     3106      3107      3112 1     
     3107      3118      3119 1     
     3108      3118      3120 1     
     3109      3118      3121 1     
     3110      3119      3122 1     
     3111      3119      3123 1     
     3112      3113      3118 1     
     3113      3124      3125 1     
     3114      3124      3126 1     
     3115      3124      3127 1     
     3116      3125      3128 1     
     3117      3125      3129 1     
     3118      3119      3124 1     
     3119      3130      3131 1     
     3120      3130      3132 1     
     3121      3130      3133 1     
     3122      3131      3134 1     
     3123      3131      3135 1     
     3124      3125      3130 1     
     3125      3136      3137 1     
     3126      3136      3138 1     
     3127      3136      3139 1     
     3128      3137      3140 1     
     3129      3137      3141 1     
     3130      3131      3136 1     
     3131      3142      3143 1     
     3132      3142      3144 1     
     3133      3142      3145 1     
     3134      3143      3146 1     
     3135      3143      3147 1     
     3136      3137      3142 1     
     3137      3148      3149 1     
     3138      3148      3150 1     
     3139      3148      3151 1     
     3140      3149      3152 1     
     3141      3149      3153 1     
     3142      3143      3148 1     
     3143      3154      3155 1     
     3144      3154      3156 1     
     3145      3154      3157 1     
     3146      3155      3158 1     
     3147      3155      3159 1     
     3148      3149      3154 1     
     3149      3160      3161 1     
     3150      3160      3162 1     
     3151      3160      3163 1     
     3152      3161      3164 1     
     3153      3161      3165 1     
     3154      3155      3160 1     
     3155      3166      3167 1     
     3156      3166      3168 1     
     3157      3166      3169 1     
     3158      3167      3170 1     
     3159      3167      3171 1     
     3160      3161      3166 1     
     3161      3172      3173 1     
     3162      3172      3174 1     
     3163      3172      3175 1     
     3164      3173      3176 1     
     3165      3173      3177 1     
     3166      3167      3172 1     
     3167      3178      3179 1     
     3168      3178      3180 1     
     3169      3178      3181 1     
     3170      3179      3182 1     
     3171      3179      3183 1     
     3172      3173      3178 1     
     3173      3184      3185 1     
     3174      3184      3186 1     
     3175      3184      3187 1     
     3176      3185      3188 1     
     3177      3185      3189 1     
     3178      3179      3184 1     
     3179      3190      3191 1     
     3180      3190      3192 1     
     3181      3190      3193 1     
     3182      3191      3194 1     
     3183      3191      3195 1     
     3184      3185      3190 1     
     3185      3196      3197 1     
     3186      3196      3198 1     
     3187      3196      3199 1     
     3188      3197      3200 1     
     3189      3197      3201 1     
     3190      3191      3196 1     
     3191      3202      3203 1     
     3192      3202      3204 1     
     3193      3202      3205 1     
     3194      3203      3206 1     
     3195      3203      3207 1     
     3196      3197      3202 1     
     3197      3208      3209 1     
     3198      3208      3210 1     
     3199      3208      3211 1     
     3200      3209      3212 1     
     3201      3209      3213 1     
     3202      3203      3208 1     
     3203      3214      3215 1     
     3204      3214      3216 1     
     3205      3214      3217 1     
     3206      3215      3218 1     
     3207      3215      3219 1     
     3208      3209      3214 1     
     3209      3220      3221 1     
     3210      3220      3222 1     
     3211      3220      3223 1     
     3212      3221      3224 1     
     3213      3221      3225 1     
     3214      3215      3220 1     
     3215      3226      3227 1     
     3216      3226      3228 1     
     3217      3226      3229 1     
     3218      3227      3230 1     
     3219      3227      3231 1     
     3220      3221      3226 1     
     3221      3232      3233 1     
     3222      3232      3234 1     
     3223      3232      3235 1     
     3224      3233      3236 1     
     3225      3233      3237 1     
     3226      3227      3232 1     
     3227      3238      3239 1     
     3228      3238      3240 1     
     3229      3238      3241 1     
     3230      3239      3242 1     
     3231      3239      3243 1     
     3232      3233      3238 1     
     3233      3244      3245 1     
     3234      3244      3246 1     
     3235      3244      3247 1     
     3236      3245      3248 1     
     3237      3245      3249 1     
     3238      3239      3244 1     
     3239      3250      3251 1     
     3240      3250      3252 1     
     3241      3250      3253 1     
     3242      3251      3254 1     
     3243      3251      3255 1     
     3244      3245      3250 1     
     3245      3256      3257 1     
     3246      3256      3258 1     
     3247      3256      3259 1     
     3248      3257      3260 1     
     3249      3257      3261 1     
     3250      3251      3256 1     
     3251      3262      3263 1     
     3252      3262      3264 1     
     3253      3262      3265 1     
     3254      3263      3266 1     
     3255      3263      3267 1     
     3256      3257      3262 1     
     3257      3268      3269 1     
     3258      3268      3270 1     
     3259      3268      3271 1     
     3260      3269      3272 1     
     3261      3269      3273 1     
     3262      3263      3268 1     
     3263      3274      3275 1     
     3264      3274      3276 1     
     3265      3274      3277 1     
     3266      3275      3278 1     
     3267      3275      3279 1     
     3268      3269      3274 1     
     3269      3280      3281 1     
     3270      3280      3282 1     
     3271      3280      3283 1     
     3272      3281      3284 1     
     3273      3281      3285 1     
     3274      3275      3280 1     
     3275      3286      3287 1     
     3276      3286      3288 1     
     3277      3286      3289 1     
     3278      3287      3290 1     
     3279      3287      3291 1     
     3280      3281      3286 1     
     3281      3292      3293 1     
     3282      3292      3294 1     
     3283      3292      3295 1     
     3284      3293      3296 1     
     3285      3293      3297 1     
     3286      3287      3292 1     
     3287      3298      3299 1     
     3288      3298      3300 1     
     3289      3298      3301 1     
     3290      3299      3302 1     
     3291      3299      3303 1     
     3292      3293      3298 1     
     3293      3304      3305 1     
     3294      3304      3306 1     
     3295      3304      3307 1     
     3296      3305      3308 1     
     3297      3305      3309 1     
     3298      3299      3304 1     
     3299      3310      3311 1     
     3300      3310      3312 1     
     3301      3310      3313 1     
     3302      3311      3314 1     
     3303      3311      3315 1     
     3304      3305      3310 1     
     3305      3316      3317 1     
     3306      3316      3318 1     
     3307      3316      3319 1     
     3308      3317      3320 1     
     3309      3317      3321 1     
     3310      3317      3322 1     
     3311      3311      3316 1     
     3312      3323      3324 1     
     3313      3323      3325 1     
     3314      3323      3326 1     
     3315      3323      3327 1     
     3316      3324      3328 1     
     3317      3324      3329 1     
     3318      3330      3331 1     
     3319      3330      3332 1     
     3320      3330      3333 1     
     3321      3331      3334 1     
     3322      3331      3335 1     
     3323      3324      3330 1     
     3324      3336      3337 1     
     3325      3336      3338 1     
     3326      3336      3339 1     
     3327      3337      3340 1     
     3328      3337      3341 1     
     3329      3331      3336 1     
     3330      3342      3343 1     
     3331      3342      3344 1     
     3332      3342      3345 1     
     3333      3343      3346 1     
     3334      3343      3347 1     
     3335      3337      3342 1     
     3336      3348      3349 1     
     3337      3348      3350 1     
     3338      3348      3351 1     
     3339      3349      3352 1     
     3340      3349      3353 1     
     3341      3343      3348 1     
     3342      3354      3355 1     
     3343      3354      3356 1     
     3344      3354      3357 1     
     3345      3355      3358 1     
     3346      3355      3359 1     
     3347      3349      3354 1     
     3348      3360      3361 1     
     3349      3360      3362 1     
     3350      3360      3363 1     
     3351      3361      3364 1     
     3352      3361      3365 1     
     3353      3355      3360 1     
     3354      3366      3367 1     
     3355      3366      3368 1     
     3356      3366      3369 1     
     3357      3367      3370 1     
     3358      3367      3371 1     
     3359      3361      3366 1     
     3360      3372      3373 1     
     3361      3372      3374 1     
     3362      3372      3375 1     
     3363      3373      3376 1     
     3364      3373      3377 1     
     3365      3367      3372 1     
     3366      3378      3379 1     
     3367      3378      3380 1     
     3368      3378      3381 1     
     3369      3379      3382 1     
     3370      3379      3383 1     
     3371      3373      3378 1     
     3372      3384      3385 1     
     3373      3384      3386 1     
     3374      3384      3387 1     
     3375      3385      3388 1     
     3376      3385      3389 1     
     3377      3379      3384 1     
     3378      3390      3391 1     
     3379      3390      3392 1     
     3380      3390      3393 1     
     3381      3391      3394 1     
     3382      3391      3395 1     
     3383      3385      3390 1     
     3384      3396      3397 1     
     3385      3396      3398 1     
     3386      3396      3399 1     
     3387      3397      3400 1     
     3388      3397      3401 1     
     3389      3391      3396 1     
     3390      3402      3403 1     
     3391      3402      3404 1     
     3392      3402      3405 1     
     3393      3403      3406 1     
     3394      3403      3407 1     
     3395      3397      3402 1     
     3396      3408      3409 1     
     3397      3408      3410 1     
     3398      3408      3411 1     
     3399      3409      3412 1     
     3400      3409      3413 1     
     3401      3403      3408 1     
     3402      3414      3415 1     
     3403      3414      3416 1     
     3404      3414      3417 1     
     3405      3415      3418 1     
     3406      3415      3419 1     
     3407      3409      3414 1     
     3408      3420      3421 1     
     3409      3420      3422 1     
     3410      3420      3423 1     
     3411      3421      3424 1     
     3412      3421      3425 1     
     3413      3415      3420 1     
     3414      3426      3427 1     
     3415      3426      3428 1     
     3416      3426      3429 1     
     3417      3427      3430 1     
     3418      3427      3431 1     
     3419      3421      3426 1     
     3420      3432      3433 1     
     3421      3432      3434 1     
     3422      3432      3435 1     
     3423      3433      3436 1     
     3424      3433      3437 1     
     3425      3427      3432 1     
     3426      3438      3439 1     
     3427      3438      3440 1     
     3428      3438      3441 1     
     3429      3439      3442 1     
     3430      3439      3443 1     
     3431      3433      3438 1     
     3432      3444      3445 1     
     3433      3444      3446 1     
     3434      3444      3447 1     
     3435      3445      3448 1     
     3436      3445      3449 1     
     3437      3439      3444 1     
     3438      3450      3451 1     
     3439      3450      3452 1     
     3440      3450      3453 1     
     3441      3451      3454 1     
     3442      3451      3455 1     
     3443      3445      3450 1     
     3444      3456      3457 1     
     3445      3456      3458 1     
     3446      3456      3459 1     
     3447      3457      3460 1     
     3448      3457      3461 1     
     3449      3451      3456 1     
     3450      3462      3463 1     
     3451      3462      3464 1     
     3452      3462      3465 1     
     3453      3463      3466 1     
     3454      3463      3467 1     
     3455      3457      3462 1     
     3456      3468      3469 1     
     3457      3468      3470 1     
     3458      3468      3471 1     
     3459      3469      3472 1     
     3460      3469      3473 1     
     3461      3463      3468 1     
     3462      3474      3475 1     
     3463      3474      3476 1     
     3464      3474      3477 1     
     3465      3475      3478 1     
     3466      3475      3479 1     
     3467      3469      3474 1     
     3468      3480      3481 1     
     3469      3480      3482 1     
     3470      3480      3483 1     
     3471      3481      3484 1     
     3472      3481      3485 1     
     3473      3475      3480 1     
     3474      3486      3487 1     
     3475      3486      3488 1     
     3476      3486      3489 1     
     3477      3487      3490 1     
     3478      3487      3491 1     
     3479      3481      3486 1     
     3480      3492      3493 1     
     3481      3492      3494 1     
     3482      3492      3495 1     
     3483      3493      3496 1     
     3484      3493      3497 1     
     3485      3487      3492 1     
     3486      3498      3499 1     
     3487      3498      3500 1     
     3488      3498      3501 1     
     3489      3499      3502 1     
     3490      3499      3503 1     
     3491      3493      3498 1     
     3492      3504      3505 1     
     3493      3504      3506 1     
     3494      3504      3507 1     
     3495      3505      3508 1     
     3496      3505      3509 1     
     3497      3499      3504 1     
     3498      3510      3511 1     
     3499      3510      3512 1     
     3500      3510      3513 1     
     3501      3511      3514 1     
     3502      3511      3515 1     
     3503      3505      3510 1     
     3504      3516      3517 1     
     3505      3516      3518 1     
     3506      3516      3519 1     
     3507      3517      3520 1     
     3508      3517      3521 1     
     3509      3511      3516 1     
     3510      3522      3523 1     
     3511      3522      3524 1     
     3512      3522      3525 1     
     3513      3523      3526 1     
     3514      3523      3527 1     
     3515      3517      3522 1     
     3516      3528      3529 1     
     3517      3528      3530 1     
     3518      3528      3531 1     
     3519      3529      3532 1     
     3520      3529      3533 1     
     3521      3523      3528 1     
     3522      3534      3535 1     
     3523      3534      3536 1     
     3524      3534      3537 1     
     3525      3535      3538 1     
     3526      3535      3539 1     
     3527      3529      3534 1     
     3528      3540      3541 1     
     3529      3540      3542 1     
     3530      3540      3543 1     
     3531      3541      3544 1     
     3532      3541      3545 1     
     3533      3535      3540 1     
     3534      3546      3547 1     
     3535      3546      3548 1     
     3536      3546      3549 1     
     3537      3547      3550 1     
     3538      3547      3551 1     
     3539      3541      3546 1     
     3540      3552      3553 1     
     3541      3552      3554 1     
     3542      3552      3555 1     
     3543      3553      3556 1     
     3544      3553      3557 1     
     3545      3547      3552 1     
     3546      3558      3559 1     
     3547      3558      3560 1     
     3548      3558      3561 1     
     3549      3559      3562 1     
     3550      3559      3563 1     
     3551      3553      3558 1     
     3552      3564      3565 1     
     3553      3564      3566 1     
     3554      3564      3567 1     
     3555      3565      3568 1     
     3556      3565      3569 1     
     3557      3559      3564 1     
     3558      3570      3571 1     
     3559      3570      3572 1     
     3560      3570      3573 1     
     3561      3571      3574 1     
     3562      3571      3575 1     
     3563      3565      3570 1     
     3564      3576      3577 1     
     3565      3576      3578 1     
     3566      3576      3579 1     
     3567      3577      3580 1     
     3568      3577      3581 1     
     3569      3571      3576 1     
     3570      3582      3583 1     
     3571      3582      3584 1     
     3572      3582      3585 1     
     3573      3583      3586 1     
     3574      3583      3587 1     
     3575      3577      3582 1     
     3576      3588      3589 1     
     3577      3588      3590 1     
     3578      3588      3591 1     
     3579      3589      3592 1     
     3580      3589      3593 1     
     3581      3583      3588 1     
     3582      3594      3595 1     
     3583      3594      3596 1     
     3584      3594      3597 1     
     3585      3595      3598 1     
     3586      3595      3599 1     
     3587      3589      3594 1     
     3588      3600      3601 1     
     3589      3600      3602 1     
     3590      3600      3603 1     
     3591      3601      3604 1     
     3592      3601      3605 1     
     3593      3595      3600 1     
     3594      3606      3607 1     
     3595      3606      3608 1     
     3596      3606      3609 1     
     3597      3607      3610 1     
     3598      3607      3611 1     
     3599      3601      3606 1     
     3600      3612      3613 1     
     3601      3612      3614 1     
     3602      3612      3615 1     
     3603      3613      3616 1     
     3604      3613      3617 1     
     3605      3607      3612 1     
     3606      3618      3619 1     
     3607      3618      3620 1     
     3608      3618      3621 1     
     3609      3619      3622 1     
     3610      3619      3623 1     
     3611      3619      3624 1     
     3612      3613      3618 1     
     3613      3625      3626 1     
     3614      3625      3627 1     
     3615      3625      3628 1     
     3616      3625      3629 1     
     3617      3626      3630 1     
     3618      3626      3631 1     
     3619      3632      3633 1     
     3620      3632      3634 1     
     3621      3632      3635 1     
     3622      3633      3636 1     
     3623      3633      3637 1     
     3624      3626      3632 1     
     3625      3638      3639 1     
     3626      3638      3640 1     
     3627      3638      3641 1     
     3628      3639      3642 1     
     3629      3639      3643 1     
     3630      3633      3638 1     
     3631      3644      3645 1     
     3632      3644      3646 1     
     3633      3644      3647 1     
     3634      3645      3648 1     
     3635      3645      3649 1     
     3636      3639      3644 1     
     3637      3650      3651 1     
     3638      3650      3652 1     
     3639      3650      3653 1     
     3640      3651      3654 1     
     3641      3651      3655 1     
     3642      3645      3650 1     
     3643      3656      3657 1     
     3644      3656      3658 1     
     3645      3656      3659 1     
     3646      3657      3660 1     
     3647      3657      3661 1     
     3648      3651      3656 1     
     3649      3662      3663 1     
     3650      3662      3664 1     
     3651      3662      3665 1     
     3652      3663      3666 1     
     3653      3663      3667 1     
     3654      3657      3662 1     
     3655      3668      3669 1     
     3656      3668      3670 1     
     3657      3668      3671 1     
     3658      3669      3672 1     
     3659      3669      3673 1     
     3660      3663      3668 1     
     3661      3674      3675 1     
     3662      3674      3676 1     
     3663      3674      3677 1     
     3664      3675      3678 1     
     3665      3675      3679 1     
     3666      3669      3674 1     
     3667      3680      3681 1     
     3668      3680      3682 1     
     3669      3680      3683 1     
     3670      3681      3684 1     
     3671      3681      3685 1     
     3672      3675      3680 1     
     3673      3686      3687 1     
     3674      3686      3688 1     
     3675      3686      3689 1     
     3676      3687      3690 1     
     3677      3687      3691 1     
     3678      3681      3686 1     
     3679      3692      3693 1     
     3680      3692      3694 1     
     3681      3692      3695 1     
     3682      3693      3696 1     
     3683      3693      3697 1     
     3684      3687      3692 1     
     3685      3698      3699 1     
     3686      3698      3700 1     
     3687      3698      3701 1     
     3688      3699      3702 1     
     3689      3699      3703 1     
     3690      3693      3698 1     
     3691      3704      3705 1     
     3692      3704      3706 1     
     3693      3704      3707 1     
     3694      3705      3708 1     
     3695      3705      3709 1     
     3696      3699      3704 1     
     3697      3710      3711 1     
     3698      3710      3712 1     
     3699      3710      3713 1     
     3700      3711      3714 1     
     3701      3711      3715 1     
     3702      3705      3710 1     
     3703      3716      3717 1     
     3704      3716      3718 1     
     3705      3716      3719 1     
     3706      3717      3720 1     
     3707      3717      3721 1     
     3708      3711      3716 1     
     3709      3722      3723 1     
     3710      3722      3724 1     
     3711      3722      3725 1     
     3712      3723      3726 1     
     3713      3723      3727 1     
     3714      3717      3722 1     
     3715      3728      3729 1     
     3716      3728      3730 1     
     3717      3728      3731 1     
     3718      3729      3732 1     
     3719      3729      3733 1     
     3720      3723      3728 1     
     3721      3734      3735 1     
     3722      3734      3736 1     
     3723      3734      3737 1     
     3724      3735      3738 1     
     3725      3735      3739 1     
     3726      3729      3734 1     
     3727      3740      3741 1     
     3728      3740      3742 1     
     3729      3740      3743 1     
     3730      3741      3744 1     
     3731      3741      3745 1     
     3732      3735      3740 1     
     3733      3746      3747 1     
     3734      3746      3748 1     
     3735      3746      3749 1     
     3736      3747      3750 1     
     3737      3747      3751 1     
     3738      3741      3746 1     
     3739      3752      3753 1     
     3740      3752      3754 1     
     3741      3752      3755 1     
     3742      3753      3756 1     
     3743      3753      3757 1     
     3744      3747      3752 1     
     3745      3758      3759 1     
     3746      3758      3760 1     
     3747      3758      3761 1     
     3748      3759      3762 1     
     3749      3759      3763 1     
     3750      3753      3758 1     
     3751      3764      3765 1     
     3752      3764      3766 1     
     3753      3764      3767 1     
     3754      3765      3768 1     
     3755      3765      3769 1     
     3756      3759      3764 1     
     3757      3770      3771 1     
     3758      3770      3772 1     
     3759      3770      3773 1     
     3760      3771      3774 1     
     3761      3771      3775 1     
     3762      3765      3770 1     
     3763      3776      3777 1     
     3764      3776      3778 1     
     3765      3776      3779 1     
     3766      3777      3780 1     
     3767      3777      3781 1     
     3768      3771      3776 1     
     3769      3782      3783 1     
     3770      3782      3784 1     
     3771      3782      3785 1     
     3772      3783      3786 1     
     3773      3783      3787 1     
     3774      3777      3782 1     
     3775      3788      3789 1     
     3776      3788      3790 1     
     3777      3788      3791 1     
     3778      3789      3792 1     
     3779      3789      3793 1     
     3780      3783      3788 1     
     3781      3794      3795 1     
     3782      3794      3796 1     
     3783      3794      3797 1     
     3784      3795      3798 1     
     3785      3795      3799 1     
     3786      3789      3794 1     
     3787      3800      3801 1     
     3788      3800      3802 1     
     3789      3800      3803 1     
     3790      3801      3804 1     
     3791      3801      3805 1     
     3792      3795      3800 1     
     3793      3806      3807 1     
     3794      3806      3808 1     
     3795      3806      3809 1     
     3796      3807      3810 1     
     3797      3807      3811 1     
     3798      3801      3806 1     
     3799      3812      3813 1     
     3800      3812      3814 1     
     3801      3812      3815 1     
     3802      3813      3816 1     
     3803      3813      3817 1     
     3804      3807      3812 1     
     3805      3818      3819 1     
     3806      3818      3820 1     
     3807      3818      3821 1     
     3808      3819      3822 1     
     3809      3819      3823 1     
     3810      3813      3818 1     
     3811      3824      3825 1     
     3812      3824      3826 1     
     3813      3824      3827 1     
     3814      3825      3828 1     
     3815      3825      3829 1     
     3816      3819      3824 1     
     3817      3830      3831 1     
     3818      3830      3832 1     
     3819      3830      3833 1     
     3820      3831      3834 1     
     3821      3831      3835 1     
     3822      3825      3830 1     
     3823      3836      3837 1     
     3824      3836      3838 1     
     3825      3836      3839 1     
     3826      3837      3840 1     
     3827      3837      3841 1     
     3828      3831      3836 1     
     3829      3842      3843 1     
     3830      3842      3844 1     
     3831      3842      3845 1     
     3832      3843      3846 1     
     3833      3843      3847 1     
     3834      3837      3842 1     
     3835      3848      3849 1     
     3836      3848      3850 1     
     3837      3848      3851 1     
     3838      3849      3852 1     
     3839      3849      3853 1     
     3840      3843      3848 1     
     3841      3854      3855 1     
     3842      3854      3856 1     
     3843      3854      3857 1     
     3844      3855      3858 1     
     3845      3855      3859 1     
     3846      3849      3854 1     
     3847      3860      3861 1     
     3848      3860      3862 1     
     3849      3860      3863 1     
     3850      3861      3864 1     
     3851      3861      3865 1     
     3852      3855      3860 1     
     3853      3866      3867 1     
     3854      3866      3868 1     
     3855      3866      3869 1     
     3856      3867      3870 1     
     3857      3867      3871 1     
     3858      3861      3866 1     
     3859      3872      3873 1     
     3860      3872      3874 1     
     3861      3872      3875 1     
     3862      3873      3876 1     
     3863      3873      3877 1     
     3864      3867      3872 1     
     3865      3878      3879 1     
     3866      3878      3880 1     
     3867      3878      3881 1     
     3868      3879      3882 1     
     3869      3879      3883 1     
     3870      3873      3878 1     
     3871      3884      3885 1     
     3872      3884      3886 1     
     3873      3884      3887 1     
     3874      3885      3888 1     
     3875      3885      3889 1     
     3876      3879      3884 1     
     3877      3890      3891 1     
     3878      3890      3892 1     
     3879      3890      3893 1     
     3880      3891      3894 1     
     3881      3891      3895 1     
     3882      3885      3890 1     
     3883      3896      3897 1     
     3884      3896      3898 1     
     3885      3896      3899 1     
     3886      3897      3900 1     
     3887      3897      3901 1     
     3888      3891      3896 1     
     3889      3902      3903 1     
     3890      3902      3904 1     
     3891      3902      3905 1     
     3892      3903      3906 1     
     3893      3903      3907 1     
     3894      3897      3902 1     
     3895      3908      3909 1     
     3896      3908      3910 1     
     3897      3908      3911 1     
     3898      3909      3912 1     
     3899      3909      3913 1     
     3900      3903      3908 1     
     3901      3914      3915 1     
     3902      3914      3916 1     
     3903      3914      3917 1     
     3904      3915      3918 1     
     3905      3915      3919 1     
     3906      3909      3914 1     
     3907      3920      3921 1     
     3908      3920      3922 1     
     3909      3920      3923 1     
     3910      3921      3924 1     
     3911      3921      3925 1     
     3912      3921      3926 1     
     3913      3915      3920 1     
     3914      3927      3928 1     
     3915      3927      3929 1     
     3916      3927      3930 1     
     3917      3927      3931 1     
     3918      3928      3932 1     
     3919      3928      3933 1     
     3920      3934      3935 1     
     3921      3934      3936 1     
     3922      3934      3937 1     
     3923      3935      3938 1     
     3924      3935      3939 1     
     3925      3928      3934 1     
     3926      3940      3941 1     
     3927      3940      3942 1     
     3928      3940      3943 1     
     3929      3941      3944 1     
     3930      3941      3945 1     
     3931      3935      3940 1     
     3932      3946      3947 1     
     3933      3946      3948 1     
     3934      3946      3949 1     
     3935      3947      3950 1     
     3936      3947      3951 1     
     3937      3941      3946 1     
     3938      3952      3953 1     
     3939      3952      3954 1     
     3940      3952      3955 1     
     3941      3953      3956 1     
     3942      3953      3957 1     
     3943      3947      3952 1     
     3944      3958      3959 1     
     3945      3958      3960 1     
     3946      3958      3961 1     
     3947      3959      3962 1     
     3948      3959      3963 1     
     3949      3953      3958 1     
     3950      3964      3965 1     
     3951      3964      3966 1     
     3952      3964      3967 1     
     3953      3965      3968 1     
     3954      3965      3969 1     
     3955      3959      3964 1     
     3956      3970      3971 1     
     3957      3970      3972 1     
     3958      3970      3973 1     
     3959      3971      3974 1     
     3960      3971      3975 1     
     3961      3965      3970 1     
     3962      3976      3977 1     
     3963      3976      3978 1     
     3964      3976      3979 1     
     3965      3977      3980 1     
     3966      3977      3981 1     
     3967      3971      3976 1     
     3968      3982      3983 1     
     3969      3982      3984 1     
     3970      3982      3985 1     
     3971      3983      3986 1     
     3972      3983      3987 1     
     3973      3977      3982 1     
     3974      3988      3989 1     
     3975      3988      3990 1     
     3976      3988      3991 1     
     3977      3989      3992 1     
     3978      3989      3993 1     
     3979      3983      3988 1     
     3980      3994      3995 1     
     3981      3994      3996 1     
     3982      3994      3997 1     
     3983      3995      3998 1     
     3984      3995      3999 1     
     3985      3989      3994 1     
     3986      4000      4001 1     
     3987      4000      4002 1     
     3988      4000      4003 1     
     3989      4001      4004 1     
     3990      4001      4005 1     
     3991      3995      4000 1     
     3992      4006      4007 1     
     3993      4006      4008 1     
     3994      4006      4009 1     
     3995      4007      4010 1     
     3996      4007      4011 1     
     3997      4001      4006 1     
     3998      4012      4013 1     
     3999      4012      4014 1     
     4000      4012      4015 1     
     4001      4013      4016 1     
     4002      4013      4017 1     
     4003      4007      4012 1     
     4004      4018      4019 1     
     4005      4018      4020 1     
     4006      4018      4021 1     
     4007      4019      4022 1     
     4008      4019      4023 1     
     4009      4013      4018 1     
     4010      4024      4025 1     
     4011      4024      4026 1     
     4012      4024      4027 1     
     4013      4025      4028 1     
     4014      4025      4029 1     
     4015      4019      4024 1     
     4016      4030      4031 1     
     4017      4030      4032 1     
     4018      4030      4033 1     
     4019      4031      4034 1     
     4020      4031      4035 1     
     4021      4025      4030 1     
     4022      4036      4037 1     
     4023      4036      4038 1     
     4024      4036      4039 1     
     4025      4037      4040 1     
     4026      4037      4041 1     
     4027      4031      4036 1     
     4028      4042      4043 1     
     4029      4042      4044 1     
     4030      4042      4045 1     
     4031      4043      4046 1     
     4032      4043      4047 1     
     4033      4037      4042 1     
     4034      4048      4049 1     
     4035      4048      4050 1     
     4036      4048      4051 1     
     4037      4049      4052 1     
     4038      4049      4053 1     
     4039      4043      4048 1     
     4040      4054      4055 1     
     4041      4054      4056 1     
     4042      4054      4057 1     
     4043      4055      4058 1     
     4044      4055      4059 1     
     4045      4049      4054 1     
     4046      4060      4061 1     
     4047      4060      4062 1     
     4048      4060      4063 1     
     4049      4061      4064 1     
     4050      4061      4065 1     
     4051      4055      4060 1     
     4052      4066      4067 1     
     4053      4066      4068 1     
     4054      4066      4069 1     
     4055      4067      4070 1     
     4056      4067      4071 1     
     4057      4061      4066 1     
     4058      4072      4073 1     
     4059      4072      4074 1     
     4060      4072      4075 1     
     4061      4073      4076 1     
     4062      4073      4077 1     
     4063      4067      4072 1     
     4064      4078      4079 1     
     4065      4078      4080 1     
     4066      4078      4081 1     
     4067      4079      4082 1     
     4068      4079      4083 1     
     4069      4073      4078 1     
     4070      4084      4085 1     
     4071      4084      4086 1     
     4072      4084      4087 1     
     4073      4085      4088 1     
     4074      4085      4089 1     
     4075      4079      4084 1     
     4076      4090      4091 1     
     4077      4090      4092 1     
     4078      4090      4093 1     
     4079      4091      4094 1     
     4080      4091      4095 1     
     4081      4085      4090 1     
     4082      4096      4097 1     
     4083      4096      4098 1     
     4084      4096      4099 1     
     4085      4097      4100 1     
     4086      4097      4101 1     
     4087      4091      4096 1     
     4088      4102      4103 1     
     4089      4102      4104 1     
     4090      4102      4105 1     
     4091      4103      4106 1     
     4092      4103      4107 1     
     4093      4097      4102 1     
     4094      4108      4109 1     
     4095      4108      4110 1     
     4096      4108      4111 1     
     4097      4109      4112 1     
     4098      4109      4113 1     
     4099      4103      4108 1     
     4100      4114      4115 1     
     4101      4114      4116 1     
     4102      4114      4117 1     
     4103      4115      4118 1     
     4104      4115      4119 1     
     4105      4109      4114 1     
     4106      4120      4121 1     
     4107      4120      4122 1     
     4108      4120      4123 1     
     4109      4121      4124 1     
     4110      4121      4125 1     
     4111      4115      4120 1     
     4112      4126      4127 1     
     4113      4126      4128 1     
     4114      4126      4129 1     
     4115      4127      4130 1     
     4116      4127      4131 1     
     4117      4121      4126 1     
     4118      4132      4133 1     
     4119      4132      4134 1     
     4120      4132      4135 1     
     4121      4133      4136 1     
     4122      4133      4137 1     
     4123      4127      4132 1     
     4124      4138      4139 1     
     4125      4138      4140 1     
     4126      4138      4141 1     
     4127      4139      4142 1     
     4128      4139      4143 1     
     4129      4133      4138 1     
     4130      4144      4145 1     
     4131      4144      4146 1     
     4132      4144      4147 1     
     4133      4145      4148 1     
     4134      4145      4149 1     
     4135      4139      4144 1     
     4136      4150      4151 1     
     4137      4150      4152 1     
     4138      4150      4153 1     
     4139      4151      4154 1     
     4140      4151      4155 1     
     4141      4145      4150 1     
     4142      4156      4157 1     
     4143      4156      4158 1     
     4144      4156      4159 1     
     4145      4157      4160 1     
     4146      4157      4161 1     
     4147      4151      4156 1     
     4148      4162      4163 1     
     4149      4162      4164 1     
     4150      4162      4165 1     
     4151      4163      4166 1     
     4152      4163      4167 1     
     4153      4157      4162 1     
     4154      4168      4169 1     
     4155      4168      4170 1     
     4156      4168      4171 1     
     4157      4169      4172 1     
     4158      4169      4173 1     
     4159      4163      4168 1     
     4160      4174      4175 1     
     4161      4174      4176 1     
     4162      4174      4177 1     
     4163      4175      4178 1     
     4164      4175      4179 1     
     4165      4169      4174 1     
     4166      4180      4181 1     
     4167      4180      4182 1     
     4168      4180      4183 1     
     4169      4181      4184 1     
     4170      4181      4185 1     
     4171      4175      4180 1     
     4172      4186      4187 1     
     4173      4186      4188 1     
     4174      4186      4189 1     
     4175      4187      4190 1     
     4176      4187      4191 1     
     4177      4181      4186 1     
     4178      4192      4193 1     
     4179      4192      4194 1     
     4180      4192      4195 1     
     4181      4193      4196 1     
     4182      4193      4197 1     
     4183      4187      4192 1     
     4184      4198      4199 1     
     4185      4198      4200 1     
     4186      4198      4201 1     
     4187      4199      4202 1     
     4188      4199      4203 1     
     4189      4193      4198 1     
     4190      4204      4205 1     
     4191      4204      4206 1     
     4192      4204      4207 1     
     4193      4205      4208 1     
     4194      4205      4209 1     
     4195      4199      4204 1     
     4196      4210      4211 1     
     4197      4210      4212 1     
     4198      4210      4213 1     
     4199      4211      4214 1     
     4200      4211      4215 1     
     4201      4205      4210 1     
     4202      4216      4217 1     
     4203      4216      4218 1     
     4204      4216      4219 1     
     4205      4217      4220 1     
     4206      4217      4221 1     
     4207      4211      4216 1     
     4208      4222      4223 1     
     4209      4222      4224 1     
     4210      4222      4225 1     
     4211      4223      4226 1     
     4212      4223      4227 1     
     4213      4223      4228 1     
     4214      4217      4222 1     
     4215      4229      4230 1     
     4216      4229      4231 1     
     4217      4229      4232 1     
     4218      4229      4233 1     
     4219      4230      4234 1     
     4220      4230      4235 1     
     4221      4236      4237 1     
     4222      4236      4238 1     
     4223      4236      4239 1     
     4224      4237      4240 1     
     4225      4237      4241 1     
     4226      4230      4236 1     
     4227      4242      4243 1     
     4228      4242      4244 1     
     4229      4242      4245 1     
     4230      4243      4246 1     
     4231      4243      4247 1     
     4232      4237      4242 1     
     4233      4248      4249 1     
     4234      4248      4250 1     
     4235      4248      4251 1     
     4236      4249      4252 1     
     4237      4249      4253 1     
     4238      4243      4248 1     
     4239      4254      4255 1     
     4240      4254      4256 1     
     4241      4254      4257 1     
     4242      4255      4258 1     
     4243      4255      4259 1     
     4244      4249      4254 1     
     4245      4260      4261 1     
     4246      4260      4262 1     
     4247      4260      4263 1     
     4248      4261      4264 1     
     4249      4261      4265 1     
     4250      4255      4260 1     
     4251      4266      4267 1     
     4252      4266      4268 1     
     4253      4266      4269 1     
     4254      4267      4270 1     
     4255      4267      4271 1     
     4256      4261      4266 1     
     4257      4272      4273 1     
     4258      4272      4274 1     
     4259      4272      4275 1     
     4260      4273      4276 1     
     4261      4273      4277 1     
     4262      4267      4272 1     
     4263      4278      4279 1     
     4264      4278      4280 1     
     4265      4278      4281 1     
     4266      4279      4282 1     
     4267      4279      4283 1     
     4268      4273      4278 1     
     4269      4284      4285 1     
     4270      4284      4286 1     
     4271      4284      4287 1     
     4272      4285      4288 1     
     4273      4285      4289 1     
     4274      4279      4284 1     
     4275      4290      4291 1     
     4276      4290      4292 1     
     4277      4290      4293 1     
     4278      4291      4294 1     
     4279      4291      4295 1     
     4280      4285      4290 1     
     4281      4296      4297 1     
     4282      4296      4298 1     
     4283      4296      4299 1     
     4284      4297      4300 1     
     4285      4297      4301 1     
     4286      4291      4296 1     
     4287      4302      4303 1     
     4288      4302      4304 1     
     4289      4302      4305 1     
     4290      4303      4306 1     
     4291      4303      4307 1     
     4292      4297      4302 1     
     4293      4308      4309 1     
     4294      4308      4310 1     
     4295      4308      4311 1     
     4296      4309      4312 1     
     4297      4309      4313 1     
     4298      4303      4308 1     
     4299      4314      4315 1     
     4300      4314      4316 1     
     4301      4314      4317 1     
     4302      4315      4318 1     
     4303      4315      4319 1     
     4304      4309      4314 1     
     4305      4320      4321 1     
     4306      4320      4322 1     
     4307      4320      4323 1     
     4308      4321      4324 1     
     4309      4321      4325 1     
     4310      4315      4320 1     
     4311      4326      4327 1     
     4312      4326      4328 1     
     4313      4326      4329 1     
     4314      4327      4330 1     
     4315      4327      4331 1     
     4316      4321      4326 1     
     4317      4332      4333 1     
     4318      4332      4334 1     
     4319      4332      4335 1     
     4320      4333      4336 1     
     4321      4333      4337 1     
     4322      4327      4332 1     
     4323      4338      4339 1     
     4324      4338      4340 1     
     4325      4338      4341 1     
     4326      4339      4342 1     
     4327      4339      4343 1     
     4328      4333      4338 1     
     4329      4344      4345 1     
     4330      4344      4346 1     
     4331      4344      4347 1     
     4332      4345      4348 1     
     4333      4345      4349 1     
     4334      4339      4344 1     
     4335      4350      4351 1     
     4336      4350      4352 1     
     4337      4350      4353 1     
     4338      4351      4354 1     
     4339      4351      4355 1     
     4340      4345      4350 1     
     4341      4356      4357 1     
     4342      4356      4358 1     
     4343      4356      4359 1     
     4344      4357      4360 1     
     4345      4357      4361 1     
     4346      4351      4356 1     
     4347      4362      4363 1     
     4348      4362      4364 1     
     4349      4362      4365 1     
     4350      4363      4366 1     
     4351      4363      4367 1     
     4352      4357      4362 1     
     4353      4368      4369 1     
     4354      4368      4370 1     
     4355      4368      4371 1     
     4356      4369      4372 1     
     4357      4369      4373 1     
     4358      4363      4368 1     
     4359      4374      4375 1     
     4360      4374      4376 1     
     4361      4374      4377 1     
     4362      4375      4378 1     
     4363      4375      4379 1     
     4364      4369      4374 1     
     4365      4380      4381 1     
     4366      4380      4382 1     
     4367      4380      4383 1     
     4368      4381      4384 1     
     4369      4381      4385 1     
     4370      4375      4380 1     
     4371      4386      4387 1     
     4372      4386      4388 1     
     4373      4386      4389 1     
     4374      4387      4390 1     
     4375      4387      4391 1     
     4376      4381      4386 1     
     4377      4392      4393 1     
     4378      4392      4394 1     
     4379      4392      4395 1     
     4380      4393      4396 1     
     4381      4393      4397 1     
     4382      4387      4392 1     
     4383      4398      4399 1     
     4384      4398      4400 1     
     4385      4398      4401 1     
     4386      4399      4402 1     
     4387      4399      4403 1     
     4388      4393      4398 1     
     4389      4404      4405 1     
     4390      4404      4406 1     
     4391      4404      4407 1     
     4392      4405      4408 1     
     4393      4405      4409 1     
     4394      4399      4404 1     
     4395      4410      4411 1     
     4396      4410      4412 1     
     4397      4410      4413 1     
     4398      4411      4414 1     
     4399      4411      4415 1     
     4400      4405      4410 1     
     4401      4416      4417 1     
     4402      4416      4418 1     
     4403      4416      4419 1     
     4404      4417      4420 1     
     4405      4417      4421 1     
     4406      4411      4416 1     
     4407      4422      4423 1     
     4408      4422      4424 1     
     4409      4422      4425 1     
     4410      4423      4426 1     
     4411      4423      4427 1     
     4412      4417      4422 1     
     4413      4428      4429 1     
     4414      4428      4430 1     
     4415      4428      4431 1     
     4416      4429      4432 1     
     4417      4429      4433 1     
     4418      4423      4428 1     
     4419      4434      4435 1     
     4420      4434      4436 1     
     4421      4434      4437 1     
     4422      4435      4438 1     
     4423      4435      4439 1     
     4424      4429      4434 1     
     4425      4440      4441 1     
     4426      4440      4442 1     
     4427      4440      4443 1     
     4428      4441      4444 1     
     4429      4441      4445 1     
     4430      4435      4440 1     
     4431      4446      4447 1     
     4432      4446      4448 1     
     4433      4446      4449 1     
     4434      4447      4450 1     
     4435      4447      4451 1     
     4436      4441      4446 1     
     4437      4452      4453 1     
     4438      4452      4454 1     
     4439      4452      4455 1     
     4440      4453      4456 1     
     4441      4453      4457 1     
     4442      4447      4452 1     
     4443      4458      4459 1     
     4444      4458      4460 1     
     4445      4458      4461 1     
     4446      4459      4462 1     
     4447      4459      4463 1     
     4448      4453      4458 1     
     4449      4464      4465 1     
     4450      4464      4466 1     
     4451      4464      4467 1     
     4452      4465      4468 1     
     4453      4465      4469 1     
     4454      4459      4464 1     
     4455      4470      4471 1     
     4456      4470      4472 1     
     4457      4470      4473 1     
     4458      4471      4474 1     
     4459      4471      4475 1     
     4460      4465      4470 1     
     4461      4476      4477 1     
     4462      4476      4478 1     
     4463      4476      4479 1     
     4464      4477      4480 1     
     4465      4477      4481 1     
     4466      4471      4476 1     
     4467      4482      4483 1     
     4468      4482      4484 1     
     4469      4482      4485 1     
     4470      4483      4486 1     
     4471      4483      4487 1     
     4472      4477      4482 1     
     4473      4488      4489 1     
     4474      4488      4490 1     
     4475      4488      4491 1     
     4476      4489      4492 1     
     4477      4489      4493 1     
     4478      4483      4488 1     
     4479      4494      4495 1     
     4480      4494      4496 1     
     4481      4494      4497 1     
     4482      4495      4498 1     
     4483      4495      4499 1     
     4484      4489      4494 1     
     4485      4500      4501 1     
     4486      4500      4502 1     
     4487      4500      4503 1     
     4488      4501      4504 1     
     4489      4501      4505 1     
     4490      4495      4500 1     
     4491      4506      4507 1     
     4492      4506      4508 1     
     4493      4506      4509 1     
     4494      4507      4510 1     
     4495      4507      4511 1     
     4496      4501      4506 1     
     4497      4512      4513 1     
     4498      4512      4514 1     
     4499      4512      4515 1     
     4500      4513      4516 1     
     4501      4513      4517 1     
     4502      4507      4512 1     
     4503      4518      4519 1     
     4504      4518      4520 1     
     4505      4518      4521 1     
     4506      4519      4522 1     
     4507      4519      4523 1     
     4508      4513      4518 1     
     4509      4524      4525 1     
     4510      4524      4526 1     
     4511      4524      4527 1     
     4512      4525      4528 1     
     4513      4525      4529 1     
     4514      4525      4530 1     
     4515      4519      4524 1     
     4516      4531      4532 1     
     4517      4531      4533 1     
     4518      4531      4534 1     
     4519      4531      4535 1     
     4520      4532      4536 1     
     4521      4532      4537 1     
     4522      4538      4539 1     
     4523      4538      4540 1     
     4524      4538      4541 1     
     4525      4539      4542 1     
     4526      4539      4543 1     
     4527      4532      4538 1     
     4528      4544      4545 1     
     4529      4544      4546 1     
     4530      4544      4547 1     
     4531      4545      4548 1     
     4532      4545      4549 1     
     4533      4539      4544 1     
     4534      4550      4551 1     
     4535      4550      4552 1     
     4536      4550      4553 1     
     4537      4551      4554 1     
     4538      4551      4555 1     
     4539      4545      4550 1     
     4540      4556      4557 1     
     4541      4556      4558 1     
     4542      4556      4559 1     
     4543      4557      4560 1     
     4544      4557      4561 1     
     4545      4551      4556 1     
     4546      4562      4563 1     
     4547      4562      4564 1     
     4548      4562      4565 1     
     4549      4563      4566 1     
     4550      4563      4567 1     
     4551      4557      4562 1     
     4552      4568      4569 1     
     4553      4568      4570 1     
     4554      4568      4571 1     
     4555      4569      4572 1     
     4556      4569      4573 1     
     4557      4563      4568 1     
     4558      4574      4575 1     
     4559      4574      4576 1     
     4560      4574      4577 1     
     4561      4575      4578 1     
     4562      4575      4579 1     
     4563      4569      4574 1     
     4564      4580      4581 1     
     4565      4580      4582 1     
     4566      4580      4583 1     
     4567      4581      4584 1     
     4568      4581      4585 1     
     4569      4575      4580 1     
     4570      4586      4587 1     
     4571      4586      4588 1     
     4572      4586      4589 1     
     4573      4587      4590 1     
     4574      4587      4591 1     
     4575      4581      4586 1     
     4576      4592      4593 1     
     4577      4592      4594 1     
     4578      4592      4595 1     
     4579      4593      4596 1     
     4580      4593      4597 1     
     4581      4587      4592 1     
     4582      4598      4599 1     
     4583      4598      4600 1     
     4584      4598      4601 1     
     4585      4599      4602 1     
     4586      4599      4603 1     
     4587      4593      4598 1     
     4588      4604      4605 1     
     4589      4604      4606 1     
     4590      4604      4607 1     
     4591      4605      4608 1     
     4592      4605      4609 1     
     4593      4599      4604 1     
     4594      4610      4611 1     
     4595      4610      4612 1     
     4596      4610      4613 1     
     4597      4611      4614 1     
     4598      4611      4615 1     
     4599      4605      4610 1     
     4600      4616      4617 1     
     4601      4616      4618 1     
     4602      4616      4619 1     
     4603      4617      4620 1     
     4604      4617      4621 1     
     4605      4611      4616 1     
     4606      4622      4623 1     
     4607      4622      4624 1     
     4608      4622      4625 1     
     4609      4623      4626 1     
     4610      4623      4627 1     
     4611      4617      4622 1     
     4612      4628      4629 1     
     4613      4628      4630 1     
     4614      4628      4631 1     
     4615      4629      4632 1     
     4616      4629      4633 1     
     4617      4623      4628 1     
     4618      4634      4635 1     
     4619      4634      4636 1     
     4620      4634      4637 1     
     4621      4635      4638 1     
     4622      4635      4639 1     
     4623      4629      4634 1     
     4624      4640      4641 1     
     4625      4640      4642 1     
     4626      4640      4643 1     
     4627      4641      4644 1     
     4628      4641      4645 1     
     4629      4635      4640 1     
     4630      4646      4647 1     
     4631      4646      4648 1     
     4632      4646      4649 1     
     4633      4647      4650 1     
     4634      4647      4651 1     
     4635      4641      4646 1     
     4636      4652      4653 1     
     4637      4652      4654 1     
     4638      4652      4655 1     
     4639      4653      4656 1     
     4640      4653      4657 1     
     4641      4647      4652 1     
     4642      4658      4659 1     
     4643      4658      4660 1     
     4644      4658      4661 1     
     4645      4659      4662 1     
     4646      4659      4663 1     
     4647      4653      4658 1     
     4648      4664      4665 1     
     4649      4664      4666 1     
     4650      4664      4667 1     
     4651      4665      4668 1     
     4652      4665      4669 1     
     4653      4659      4664 1     
     4654      4670      4671 1     
     4655      4670      4672 1     
     4656      4670      4673 1     
     4657      4671      4674 1     
     4658      4671      4675 1     
     4659      4665      4670 1     
     4660      4676      4677 1     
     4661      4676      4678 1     
     4662      4676      4679 1     
     4663      4677      4680 1     
     4664      4677      4681 1     
     4665      4671      4676 1     
     4666      4682      4683 1     
     4667      4682      4684 1     
     4668      4682      4685 1     
     4669      4683      4686 1     
     4670      4683      4687 1     
     4671      4677      4682 1     
     4672      4688      4689 1     
     4673      4688      4690 1     
     4674      4688      4691 1     
     4675      4689      4692 1     
     4676      4689      4693 1     
     4677      4683      4688 1     
     4678      4694      4695 1     
     4679      4694      4696 1     
     4680      4694      4697 1     
     4681      4695      4698 1     
     4682      4695      4699 1     
     4683      4689      4694 1     
     4684      4700      4701 1     
     4685      4700      4702 1     
     4686      4700      4703 1     
     4687      4701      4704 1     
     4688      4701      4705 1     
     4689      4695      4700 1     
     4690      4706      4707 1     
     4691      4706      4708 1     
     4692      4706      4709 1     
     4693      4707      4710 1     
     4694      4707      4711 1     
     4695      4701      4706 1     
     4696      4712      4713 1     
     4697      4712      4714 1     
     4698      4712      4715 1     
     4699      4713      4716 1     
     4700      4713      4717 1     
     4701      4707      4712 1     
     4702      4718      4719 1     
     4703      4718      4720 1     
     4704      4718      4721 1     
     4705      4719      4722 1     
     4706      4719      4723 1     
     4707      4713      4718 1     
     4708      4724      4725 1     
     4709      4724      4726 1     
     4710      4724      4727 1     
     4711      4725      4728 1     
     4712      4725      4729 1     
     4713      4719      4724 1     
     4714      4730      4731 1     
     4715      4730      4732 1     
     4716      4730      4733 1     
     4717      4731      4734 1     
     4718      4731      4735 1     
     4719      4725      4730 1     
     4720      4736      4737 1     
     4721      4736      4738 1     
     4722      4736      4739 1     
     4723      4737      4740 1     
     4724      4737      4741 1     
     4725      4731      4736 1     
     4726      4742      4743 1     
     4727      4742      4744 1     
     4728      4742      4745 1     
     4729      4743      4746 1     
     4730      4743      4747 1     
     4731      4737      4742 1     
     4732      4748      4749 1     
     4733      4748      4750 1     
     4734      4748      4751 1     
     4735      4749      4752 1     
     4736      4749      4753 1     
     4737      4743      4748 1     
     4738      4754      4755 1     
     4739      4754      4756 1     
     4740      4754      4757 1     
     4741      4755      4758 1     
     4742      4755      4759 1     
     4743      4749      4754 1     
     4744      4760      4761 1     
     4745      4760      4762 1     
     4746      4760      4763 1     
     4747      4761      4764 1     
     4748      4761      4765 1     
     4749      4755      4760 1     
     4750      4766      4767 1     
     4751      4766      4768 1     
     4752      4766      4769 1     
     4753      4767      4770 1     
     4754      4767      4771 1     
     4755      4761      4766 1     
     4756      4772      4773 1     
     4757      4772      4774 1     
     4758      4772      4775 1     
     4759      4773      4776 1     
     4760      4773      4777 1     
     4761      4767      4772 1     
     4762      4778      4779 1     
     4763      4778      4780 1     
     4764      4778      4781 1     
     4765      4779      4782 1     
     4766      4779      4783 1     
     4767      4773      4778 1     
     4768      4784      4785 1     
     4769      4784      4786 1     
     4770      4784      4787 1     
     4771      4785      4788 1     
     4772      4785      4789 1     
     4773      4779      4784 1     
     4774      4790      4791 1     
     4775      4790      4792 1     
     4776      4790      4793 1     
     4777      4791      4794 1     
     4778      4791      4795 1     
     4779      4785      4790 1     
     4780      4796      4797 1     
     4781      4796      4798 1     
     4782      4796      4799 1     
     4783      4797      4800 1     
     4784      4797      4801 1     
     4785      4791      4796 1     
     4786      4802      4803 1     
     4787      4802      4804 1     
     4788      4802      4805 1     
     4789      4803      4806 1     
     4790      4803      4807 1     
     4791      4797      4802 1     
     4792      4808      4809 1     
     4793      4808      4810 1     
     4794      4808      4811 1     
     4795      4809      4812 1     
     4796      4809      4813 1     
     4797      4803      4808 1     
     4798      4814      4815 1     
     4799      4814      4816 1     
     4800      4814      4817 1     
     4801      4815      4818 1     
     4802      4815      4819 1     
     4803      4809      4814 1     
     4804      4820      4821 1     
     4805      4820      4822 1     
     4806      4820      4823 1     
     4807      4821      4824 1     
     4808      4821      4825 1     
     4809      4815      4820 1     
     4810      4826      4827 1     
     4811      4826      4828 1     
     4812      4826      4829 1     
     4813      4827      4830 1     
     4814      4827      4831 1     
     4815      4827      4832 1     
     4816      4821      4826 1     
     4817      4833      4834 1     
     4818      4833      4835 1     
     4819      4833      4836 1     
     4820      4833      4837 1     
     4821      4834      4838 1     
     4822      4834      4839 1     
     4823      4840      4841 1     
     4824      4840      4842 1     
     4825      4840      4843 1     
     4826      4841      4844 1     
     4827      4841      4845 1     
     4828      4834      4840 1     
     4829      4846      4847 1     
     4830      4846      4848 1     
     4831      4846      4849 1     
     4832      4847      4850 1     
     4833      4847      4851 1     
     4834      4841      4846 1     
     4835      4852      4853 1     
     4836      4852      4854 1     
     4837      4852      4855 1     
     4838      4853      4856 1     
     4839      4853      4857 1     
     4840      4847      4852 1     
     4841      4858      4859 1     
     4842      4858      4860 1     
     4843      4858      4861 1     
     4844      4859      4862 1     
     4845      4859      4863 1     
     4846      4853      4858 1     
     4847      4864      4865 1     
     4848      4864      4866 1     
     4849      4864      4867 1     
     4850      4865      4868 1     
     4851      4865      4869 1     
     4852      4859      4864 1     
     4853      4870      4871 1     
     4854      4870      4872 1     
     4855      4870      4873 1     
     4856      4871      4874 1     
     4857      4871      4875 1     
     4858      4865      4870 1     
     4859      4876      4877 1     
     4860      4876      4878 1     
     4861      4876      4879 1     
     4862      4877      4880 1     
     4863      4877      4881 1     
     4864      4871      4876 1     
     4865      4882      4883 1     
     4866      4882      4884 1     
     4867      4882      4885 1     
     4868      4883      4886 1     
     4869      4883      4887 1     
     4870      4877      4882 1     
     4871      4888      4889 1     
     4872      4888      4890 1     
     4873      4888      4891 1     
     4874      4889      4892 1     
     4875      4889      4893 1     
     4876      4883      4888 1     
     4877      4894      4895 1     
     4878      4894      4896 1     
     4879      4894      4897 1     
     4880      4895      4898 1     
     4881      4895      4899 1     
     4882      4889      4894 1     
     4883      4900      4901 1     
     4884      4900      4902 1     
     4885      4900      4903 1     
     4886      4901      4904 1     
     4887      4901      4905 1     
     4888      4895      4900 1     
     4889      4906      4907 1     
     4890      4906      4908 1     
     4891      4906      4909 1     
     4892      4907      4910 1     
     4893      4907      4911 1     
     4894      4901      4906 1     
     4895      4912      4913 1     
     4896      4912      4914 1     
     4897      4912      4915 1     
     4898      4913      4916 1     
     4899      4913      4917 1     
     4900      4907      4912 1     
     4901      4918      4919 1     
     4902      4918      4920 1     
     4903      4918      4921 1     
     4904      4919      4922 1     
     4905      4919      4923 1     
     4906      4913      4918 1     
     4907      4924      4925 1     
     4908      4924      4926 1     
     4909      4924      4927 1     
     4910      4925      4928 1     
     4911      4925      4929 1     
     4912      4919      4924 1     
     4913      4930      4931 1     
     4914      4930      4932 1     
     4915      4930      4933 1     
     4916      4931      4934 1     
     4917      4931      4935 1     
     4918      4925      4930 1     
     4919      4936      4937 1     
     4920      4936      4938 1     
     4921      4936      4939 1     
     4922      4937      4940 1     
     4923      4937      4941 1     
     4924      4931      4936 1     
     4925      4942      4943 1     
     4926      4942      4944 1     
     4927      4942      4945 1     
     4928      4943      4946 1     
     4929      4943      4947 1     
     4930      4937      4942 1     
     4931      4948      4949 1     
     4932      4948      4950 1     
     4933      4948      4951 1     
     4934      4949      4952 1     
     4935      4949      4953 1     
     4936      4943      4948 1     
     4937      4954      4955 1     
     4938      4954      4956 1     
     4939      4954      4957 1     
     4940      4955      4958 1     
     4941      4955      4959 1     
     4942      4949      4954 1     
     4943      4960      4961 1     
     4944      4960      4962 1     
     4945      4960      4963 1     
     4946      4961      4964 1     
     4947      4961      4965 1     
     4948      4955      4960 1     
     4949      4966      4967 1     
     4950      4966      4968 1     
     4951      4966      4969 1     
     4952      4967      4970 1     
     4953      4967      4971 1     
     4954      4961      4966 1     
     4955      4972      4973 1     
     4956      4972      4974 1     
     4957      4972      4975 1     
     4958      4973      4976 1     
     4959      4973      4977 1     
     4960      4967      4972 1     
     4961      4978      4979 1     
     4962      4978      4980 1     
     4963      4978      4981 1     
     4964      4979      4982 1     
     4965      4979      4983 1     
     4966      4973      4978 1     
     4967      4984      4985 1     
     4968      4984      4986 1     
     4969      4984      4987 1     
     4970      4985      4988 1     
     4971      4985      4989 1     
     4972      4979      4984 1     
     4973      4990      4991 1     
     4974      4990      4992 1     
     4975      4990      4993 1     
     4976      4991      4994 1     
     4977      4991      4995 1     
     4978      4985      4990 1     
     4979      4996      4997 1     
     4980      4996      4998 1     
     4981      4996      4999 1     
     4982      4997      5000 1     
     4983      4997      5001 1     
     4984      4991      4996 1     
     4985      5002      5003 1     
     4986      5002      5004 1     
     4987      5002      5005 1     
     4988      5003      5006 1     
     4989      5003      5007 1     
     4990      4997      5002 1     
     4991      5008      5009 1     
     4992      5008      5010 1     
     4993      5008      5011 1     
     4994      5009      5012 1     
     4995      5009      5013 1     
     4996      5003      5008 1     
     4997      5014      5015 1     
     4998      5014      5016 1     
     4999      5014      5017 1     
     5000      5015      5018 1     
     5001      5015      5019 1     
     5002      5009      5014 1     
     5003      5020      5021 1     
     5004      5020      5022 1     
     5005      5020      5023 1     
     5006      5021      5024 1     
     5007      5021      5025 1     
     5008      5015      5020 1     
     5009      5026      5027 1     
     5010      5026      5028 1     
     5011      5026      5029 1     
     5012      5027      5030 1     
     5013      5027      5031 1     
     5014      5021      5026 1     
     5015      5032      5033 1     
     5016      5032      5034 1     
     5017      5032      5035 1     
     5018      5033      5036 1     
     5019      5033      5037 1     
     5020      5027      5032 1     
     5021      5038      5039 1     
     5022      5038      5040 1     
     5023      5038      5041 1     
     5024      5039      5042 1     
     5025      5039      5043 1     
     5026      5033      5038 1     
     5027      5044      5045 1     
     5028      5044      5046 1     
     5029      5044      5047 1     
     5030      5045      5048 1     
     5031      5045      5049 1     
     5032      5039      5044 1     
     5033      5050      5051 1     
     5034      5050      5052 1     
     5035      5050      5053 1     
     5036      5051      5054 1     
     5037      5051      5055 1     
     5038      5045      5050 1     
     5039      5056      5057 1     
     5040      5056      5058 1     
     5041      5056      5059 1     
     5042      5057      5060 1     
     5043      5057      5061 1     
     5044      5051      5056 1     
     5045      5062      5063 1     
     5046      5062      5064 1     
     5047      5062      5065 1     
     5048      5063      5066 1     
     5049      5063      5067 1     
     5050      5057      5062 1     
     5051      5068      5069 1     
     5052      5068      5070 1     
     5053      5068      5071 1     
     5054      5069      5072 1     
     5055      5069      5073 1     
     5056      5063      5068 1     
     5057      5074      5075 1     
     5058      5074      5076 1     
     5059      5074      5077 1     
     5060      5075      5078 1     
     5061      5075      5079 1     
     5062      5069      5074 1     
     5063      5080      5081 1     
     5064      5080      5082 1     
     5065      5080      5083 1     
     5066      5081      5084 1     
     5067      5081      5085 1     
     5068      5075      5080 1     
     5069      5086      5087 1     
     5070      5086      5088 1     
     5071      5086      5089 1     
     5072      5087      5090 1     
     5073      5087      5091 1     
     5074      5081      5086 1     
     5075      5092      5093 1     
     5076      5092      5094 1     
     5077      5092      5095 1     
     5078      5093      5096 1     
     5079      5093      5097 1     
     5080      5087      5092 1     
     5081      5098      5099 1     
     5082      5098      5100 1     
     5083      5098      5101 1     
     5084      5099      5102 1     
     5085      5099      5103 1     
     5086      5093      5098 1     
     5087      5104      5105 1     
     5088      5104      5106 1     
     5089      5104      5107 1     
     5090      5105      5108 1     
     5091      5105      5109 1     
     5092      5099      5104 1     
     5093      5110      5111 1     
     5094      5110      5112 1     
     5095      5110      5113 1     
     5096      5111      5114 1     
     5097      5111      5115 1     
     5098      5105      5110 1     
     5099      5116      5117 1     
     5100      5116      5118 1     
     5101      5116      5119 1     
     5102      5117      5120 1     
     5103      5117      5121 1     
     5104      5111      5116 1     
     5105      5122      5123 1     
     5106      5122      5124 1     
     5107      5122      5125 1     
     5108      5123      5126 1     
     5109      5123      5127 1     
     5110      5117      5122 1     
     5111      5128      5129 1     
     5112      5128      5130 1     
     5113      5128      5131 1     
     5114      5129      5132 1     
     5115      5129      5133 1     
     5116      5129      5134 1     
     5117      5123      5128 1     
     5118      5135      5136 1     
     5119      5135      5137 1     
     5120      5135      5138 1     
     5121      5135      5139 1     
     5122      5136      5140 1     
     5123      5136      5141 1     
     5124      5142      5143 1     
     5125      5142      5144 1     
     5126      5142      5145 1     
     5127      5143      5146 1     
     5128      5143      5147 1     
     5129      5136      5142 1     
     5130      5148      5149 1     
     5131      5148      5150 1     
     5132      5148      5151 1     
     5133      5149      5152 1     
     5134      5149      5153 1     
     5135      5143      5148 1     
     5136      5154      5155 1     
     5137      5154      5156 1     
     5138      5154      5157 1     
     5139      5155      5158 1     
     5140      5155      5159 1     
     5141      5149      5154 1     
     5142      5160      5161 1     
     5143      5160      5162 1     
     5144      5160      5163 1     
     5145      5161      5164 1     
     5146      5161      5165 1     
     5147      5155      5160 1     
     5148      5166      5167 1     
     5149      5166      5168 1     
     5150      5166      5169 1     
     5151      5167      5170 1     
     5152      5167      5171 1     
     5153      5161      5166 1     
     5154      5172      5173 1     
     5155      5172      5174 1     
     5156      5172      5175 1     
     5157      5173      5176 1     
     5158      5173      5177 1     
     5159      5167      5172 1     
     5160      5178      5179 1     
     5161      5178      5180 1     
     5162      5178      5181 1     
     5163      5179      5182 1     
     5164      5179      5183 1     
     5165      5173      5178 1     
     5166      5184      5185 1     
     5167      5184      5186 1     
     5168      5184      5187 1     
     5169      5185      5188 1     
     5170      5185      5189 1     
     5171      5179      5184 1     
     5172      5190      5191 1     
     5173      5190      5192 1     
     5174      5190      5193 1     
     5175      5191      5194 1     
     5176      5191      5195 1     
     5177      5185      5190 1     
     5178      5196      5197 1     
     5179      5196      5198 1     
     5180      5196      5199 1     
     5181      5197      5200 1     
     5182      5197      5201 1     
     5183      5191      5196 1     
     5184      5202      5203 1     
     5185      5202      5204 1     
     5186      5202      5205 1     
     5187      5203      5206 1     
     5188      5203      5207 1     
     5189      5197      5202 1     
     5190      5208      5209 1     
     5191      5208      5210 1     
     5192      5208      5211 1     
     5193      5209      5212 1     
     5194      5209      5213 1     
     5195      5203      5208 1     
     5196      5214      5215 1     
     5197      5214      5216 1     
     5198      5214      5217 1     
     5199      5215      5218 1     
     5200      5215      5219 1     
     5201      5209      5214 1     
     5202      5220      5221 1     
     5203      5220      5222 1     
     5204      5220      5223 1     
     5205      5221      5224 1     
     5206      5221      5225 1     
     5207      5215      5220 1     
     5208      5226      5227 1     
     5209      5226      5228 1     
     5210      5226      5229 1     
     5211      5227      5230 1     
     5212      5227      5231 1     
     5213      5221      5226 1     
     5214      5232      5233 1     
     5215      5232      5234 1     
     5216      5232      5235 1     
     5217      5233      5236 1     
     5218      5233      5237 1     
     5219      5227      5232 1     
     5220      5238      5239 1     
     5221      5238      5240 1     
     5222      5238      5241 1     
     5223      5239      5242 1     
     5224      5239      5243 1     
     5225      5233      5238 1     
     5226      5244      5245 1     
     5227      5244      5246 1     
     5228      5244      5247 1     
     5229      5245      5248 1     
     5230      5245      5249 1     
     5231      5239      5244 1     
     5232      5250      5251 1     
     5233      5250      5252 1     
     5234      5250      5253 1     
     5235      5251      5254 1     
     5236      5251      5255 1     
     5237      5245      5250 1     
     5238      5256      5257 1     
     5239      5256      5258 1     
     5240      5256      5259 1     
     5241      5257      5260 1     
     5242      5257      5261 1     
     5243      5251      5256 1     
     5244      5262      5263 1     
     5245      5262      5264 1     
     5246      5262      5265 1     
     5247      5263      5266 1     
     5248      5263      5267 1     
     5249      5257      5262 1     
     5250      5268      5269 1     
     5251      5268      5270 1     
     5252      5268      5271 1     
     5253      5269      5272 1     
     5254      5269      5273 1     
     5255      5263      5268 1     
     5256      5274      5275 1     
     5257      5274      5276 1     
     5258      5274      5277 1     
     5259      5275      5278 1     
     5260      5275      5279 1     
     5261      5269      5274 1     
     5262      5280      5281 1     
     5263      5280      5282 1     
     5264      5280      5283 1     
     5265      5281      5284 1     
     5266      5281      5285 1     
     5267      5275      5280 1     
     5268      5286      5287 1     
     5269      5286      5288 1     
     5270      5286      5289 1     
     5271      5287      5290 1     
     5272      5287      5291 1     
     5273      5281      5286 1     
     5274      5292      5293 1     
     5275      5292      5294 1     
     5276      5292      5295 1     
     5277      5293      5296 1     
     5278      5293      5297 1     
     5279      5287      5292 1     
     5280      5298      5299 1     
     5281      5298      5300 1     
     5282      5298      5301 1     
     5283      5299      5302 1     
     5284      5299      5303 1     
     5285      5293      5298 1     
     5286      5304      5305 1     
     5287      5304      5306 1     
     5288      5304      5307 1     
     5289      5305      5308 1     
     5290      5305      5309 1     
     5291      5299      5304 1     
     5292      5310      5311 1     
     5293      5310      5312 1     
     5294      5310      5313 1     
     5295      5311      5314 1     
     5296      5311      5315 1     
     5297      5305      5310 1     
     5298      5316      5317 1     
     5299      5316      5318 1     
     5300      5316      5319 1     
     5301      5317      5320 1     
     5302      5317      5321 1     
     5303      5311      5316 1     
     5304      5322      5323 1     
     5305      5322      5324 1     
     5306      5322      5325 1     
     5307      5323      5326 1     
     5308      5323      5327 1     
     5309      5317      5322 1     
     5310      5328      5329 1     
     5311      5328      5330 1     
     5312      5328      5331 1     
     5313      5329      5332 1     
     5314      5329      5333 1     
     5315      5323      5328 1     
     5316      5334      5335 1     
     5317      5334      5336 1     
     5318      5334      5337 1     
     5319      5335      5338 1     
     5320      5335      5339 1     
     5321      5329      5334 1     
     5322      5340      5341 1     
     5323      5340      5342 1     
     5324      5340      5343 1     
     5325      5341      5344 1     
     5326      5341      5345 1     
     5327      5335      5340 1     
     5328      5346      5347 1     
     5329      5346      5348 1     
     5330      5346      5349 1     
     5331      5347      5350 1     
     5332      5347      5351 1     
     5333      5341      5346 1     
     5334      5352      5353 1     
     5335      5352      5354 1     
     5336      5352      5355 1     
     5337      5353      5356 1     
     5338      5353      5357 1     
     5339      5347      5352 1     
     5340      5358      5359 1     
     5341      5358      5360 1     
     5342      5358      5361 1     
     5343      5359      5362 1     
     5344      5359      5363 1     
     5345      5353      5358 1     
     5346      5364      5365 1     
     5347      5364      5366 1     
     5348      5364      5367 1     
     5349      5365      5368 1     
     5350      5365      5369 1     
     5351      5359      5364 1     
     5352      5370      5371 1     
     5353      5370      5372 1     
     5354      5370      5373 1     
     5355      5371      5374 1     
     5356      5371      5375 1     
     5357      5365      5370 1     
     5358      5376      5377 1     
     5359      5376      5378 1     
     5360      5376      5379 1     
     5361      5377      5380 1     
     5362      5377      5381 1     
     5363      5371      5376 1     
     5364      5382      5383 1     
     5365      5382      5384 1     
     5366      5382      5385 1     
     5367      5383      5386 1     
     5368      5383      5387 1     
     5369      5377      5382 1     
     5370      5388      5389 1     
     5371      5388      5390 1     
     5372      5388      5391 1     
     5373      5389      5392 1     
     5374      5389      5393 1     
     5375      5383      5388 1     
     5376      5394      5395 1     
     5377      5394      5396 1     
     5378      5394      5397 1     
     5379      5395      5398 1     
     5380      5395      5399 1     
     5381      5389      5394 1     
     5382      5400      5401 1     
     5383      5400      5402 1     
     5384      5400      5403 1     
     5385      5401      5404 1     
     5386      5401      5405 1     
     5387      5395      5400 1     
     5388      5406      5407 1     
     5389      5406      5408 1     
     5390      5406      5409 1     
     5391      5407      5410 1     
     5392      5407      5411 1     
     5393      5401      5406 1     
     5394      5412      5413 1     
     5395      5412      5414 1     
     5396      5412      5415 1     
     5397      5413      5416 1     
     5398      5413      5417 1     
     5399      5407      5412 1     
     5400      5418      5419 1     
     5401      5418      5420 1     
     5402      5418      5421 1     
     5403      5419      5422 1     
     5404      5419      5423 1     
     5405      5413      5418 1     
     5406      5424      5425 1     
     5407      5424      5426 1     
     5408      5424      5427 1     
     5409      5425      5428 1     
     5410      5425      5429 1     
     5411      5419      5424 1     
     5412      5430      5431 1     
     5413      5430      5432 1     
     5414      5430      5433 1     
     5415      5431      5434 1     
     5416      5431      5435 1     
     5417      5431      5436 1     
     5418      5425      5430 1     
     5419      5437      5438 1     
     5420      5437      5439 1     
     5421      5437      5440 1     
     5422      5437      5441 1     
     5423      5438      5442 1     
     5424      5438      5443 1     
     5425      5444      5445 1     
     5426      5444      5446 1     
     5427      5444      5447 1     
     5428      5445      5448 1     
     5429      5445      5449 1     
     5430      5438      5444 1     
     5431      5450      5451 1     
     5432      5450      5452 1     
     5433      5450      5453 1     
     5434      5451      5454 1     
     5435      5451      5455 1     
     5436      5445      5450 1     
     5437      5456      5457 1     
     5438      5456      5458 1     
     5439      5456      5459 1     
     5440      5457      5460 1     
     5441      5457      5461 1     
     5442      5451      5456 1     
     5443      5462      5463 1     
     5444      5462      5464 1     
     5445      5462      5465 1     
     5446      5463      5466 1     
     5447      5463      5467 1     
     5448      5457      5462 1     
     5449      5468      5469 1     
     5450      5468      5470 1     
     5451      5468      5471 1     
     5452      5469      5472 1     
     5453      5469      5473 1     
     5454      5463      5468 1     
     5455      5474      5475 1     
     5456      5474      5476 1     
     5457      5474      5477 1     
     5458      5475      5478 1     
     5459      5475      5479 1     
     5460      5469      5474 1     
     5461      5480      5481 1     
     5462      5480      5482 1     
     5463      5480      5483 1     
     5464      5481      5484 1     
     5465      5481      5485 1     
     5466      5475      5480 1     
     5467      5486      5487 1     
     5468      5486      5488 1     
     5469      5486      5489 1     
     5470      5487      5490 1     
     5471      5487      5491 1     
     5472      5481      5486 1     
     5473      5492      5493 1     
     5474      5492      5494 1     
     5475      5492      5495 1     
     5476      5493      5496 1     
     5477      5493      5497 1     
     5478      5487      5492 1     
     5479      5498      5499 1     
     5480      5498      5500 1     
     5481      5498      5501 1     
     5482      5499      5502 1     
     5483      5499      5503 1     
     5484      5493      5498 1     
     5485      5504      5505 1     
     5486      5504      5506 1     
     5487      5504      5507 1     
     5488      5505      5508 1     
     5489      5505      5509 1     
     5490      5499      5504 1     
     5491      5510      5511 1     
     5492      5510      5512 1     
     5493      5510      5513 1     
     5494      5511      5514 1     
     5495      5511      5515 1     
     5496      5505      5510 1     
     5497      5516      5517 1     
     5498      5516      5518 1     
     5499      5516      5519 1     
     5500      5517      5520 1     
     5501      5517      5521 1     
     5502      5511      5516 1     
     5503      5522      5523 1     
     5504      5522      5524 1     
     5505      5522      5525 1     
     5506      5523      5526 1     
     5507      5523      5527 1     
     5508      5517      5522 1     
     5509      5528      5529 1     
     5510      5528      5530 1     
     5511      5528      5531 1     
     5512      5529      5532 1     
     5513      5529      5533 1     
     5514      5523      5528 1     
     5515      5534      5535 1     
     5516      5534      5536 1     
     5517      5534      5537 1     
     5518      5535      5538 1     
     5519      5535      5539 1     
     5520      5529      5534 1     
     5521      5540      5541 1     
     5522      5540      5542 1     
     5523      5540      5543 1     
     5524      5541      5544 1     
     5525      5541      5545 1     
     5526      5535      5540 1     
     5527      5546      5547 1     
     5528      5546      5548 1     
     5529      5546      5549 1     
     5530      5547      5550 1     
     5531      5547      5551 1     
     5532      5541      5546 1     
     5533      5552      5553 1     
     5534      5552      5554 1     
     5535      5552      5555 1     
     5536      5553      5556 1     
     5537      5553      5557 1     
     5538      5547      5552 1     
     5539      5558      5559 1     
     5540      5558      5560 1     
     5541      5558      5561 1     
     5542      5559      5562 1     
     5543      5559      5563 1     
     5544      5553      5558 1     
     5545      5564      5565 1     
     5546      5564      5566 1     
     5547      5564      5567 1     
     5548      5565      5568 1     
     5549      5565      5569 1     
     5550      5559      5564 1     
     5551      5570      5571 1     
     5552      5570      5572 1     
     5553      5570      5573 1     
     5554      5571      5574 1     
     5555      5571      5575 1     
     5556      5565      5570 1     
     5557      5576      5577 1     
     5558      5576      5578 1     
     5559      5576      5579 1     
     5560      5577      5580 1     
     5561      5577      5581 1     
     5562      5571      5576 1     
     5563      5582      5583 1     
     5564      5582      5584 1     
     5565      5582      5585 1     
     5566      5583      5586 1     
     5567      5583      5587 1     
     5568      5577      5582 1     
     5569      5588      5589 1     
     5570      5588      5590 1     
     5571      5588      5591 1     
     5572      5589      5592 1     
     5573      5589      5593 1     
     5574      5583      5588 1     
     5575      5594      5595 1     
     5576      5594      5596 1     
     5577      5594      5597 1     
     5578      5595      5598 1     
     5579      5595      5599 1     
     5580      5589      5594 1     
     5581      5600      5601 1     
     5582      5600      5602 1     
     5583      5600      5603 1     
     5584      5601      5604 1     
     5585      5601      5605 1     
     5586      5595      5600 1     
     5587      5606      5607 1     
     5588      5606      5608 1     
     5589      5606      5609 1     
     5590      5607      5610 1     
     5591      5607      5611 1     
     5592      5601      5606 1     
     5593      5612      5613 1     
     5594      5612      5614 1     
     5595      5612      5615 1     
     5596      5613      5616 1     
     5597      5613      5617 1     
     5598      5607      5612 1     
     5599      5618      5619 1     
     5600      5618      5620 1     
     5601      5618      5621 1     
     5602      5619      5622 1     
     5603      5619      5623 1     
     5604      5613      5618 1     
     5605      5624      5625 1     
     5606      5624      5626 1     
     5607      5624      5627 1     
     5608      5625      5628 1     
     5609      5625      5629 1     
     5610      5619      5624 1     
     5611      5630      5631 1     
     5612      5630      5632 1     
     5613      5630      5633 1     
     5614      5631      5634 1     
     5615      5631      5635 1     
     5616      5625      5630 1     
     5617      5636      5637 1     
     5618      5636      5638 1     
     5619      5636      5639 1     
     5620      5637      5640 1     
     5621      5637      5641 1     
     5622      5631      5636 1     
     5623      5642      5643 1     
     5624      5642      5644 1     
     5625      5642      5645 1     
     5626      5643      5646 1     
     5627      5643      5647 1     
     5628      5637      5642 1     
     5629      5648      5649 1     
     5630      5648      5650 1     
     5631      5648      5651 1     
     5632      5649      5652 1     
     5633      5649      5653 1     
     5634      5643      5648 1     
     5635      5654      5655 1     
     5636      5654      5656 1     
     5637      5654      5657 1     
     5638      5655      5658 1     
     5639      5655      5659 1     
     5640      5649      5654 1     
     5641      5660      5661 1     
     5642      5660      5662 1     
     5643      5660      5663 1     
     5644      5661      5664 1     
     5645      5661      5665 1     
     5646      5655      5660 1     
     5647      5666      5667 1     
     5648      5666      5668 1     
     5649      5666      5669 1     
     5650      5667      5670 1     
     5651      5667      5671 1     
     5652      5661      5666 1     
     5653      5672      5673 1     
     5654      5672      5674 1     
     5655      5672      5675 1     
     5656      5673      5676 1     
     5657      5673      5677 1     
     5658      5667      5672 1     
     5659      5678      5679 1     
     5660      5678      5680 1     
     5661      5678      5681 1     
     5662      5679      5682 1     
     5663      5679      5683 1     
     5664      5673      5678 1     
     5665      5684      5685 1     
     5666      5684      5686 1     
     5667      5684      5687 1     
     5668      5685      5688 1     
     5669      5685      5689 1     
     5670      5679      5684 1     
     5671      5690      5691 1     
     5672      5690      5692 1     
     5673      5690      5693 1     
     5674      5691      5694 1     
     5675      5691      5695 1     
     5676      5685      5690 1     
     5677      5696      5697 1     
     5678      5696      5698 1     
     5679      5696      5699 1     
     5680      5697      5700 1     
     5681      5697      5701 1     
     5682      5691      5696 1     
     5683      5702      5703 1     
     5684      5702      5704 1     
     5685      5702      5705 1     
     5686      5703      5706 1     
     5687      5703      5707 1     
     5688      5697      5702 1     
     5689      5708      5709 1     
     5690      5708      5710 1     
     5691      5708      5711 1     
     5692      5709      5712 1     
     5693      5709      5713 1     
     5694      5703      5708 1     
     5695      5714      5715 1     
     5696      5714      5716 1     
     5697      5714      5717 1     
     5698      5715      5718 1     
     5699      5715      5719 1     
     5700      5709      5714 1     
     5701      5720      5721 1     
     5702      5720      5722 1     
     5703      5720      5723 1     
     5704      5721      5724 1     
     5705      5721      5725 1     
     5706      5715      5720 1     
     5707      5726      5727 1     
     5708      5726      5728 1     
     5709      5726      5729 1     
     5710      5727      5730 1     
     5711      5727      5731 1     
     5712      5721      5726 1     
     5713      5732      5733 1     
     5714      5732      5734 1     
     5715      5732      5735 1     
     5716      5733      5736 1     
     5717      5733      5737 1     
     5718      5733      5738 1     
     5719      5727      5732 1     
     5720      5739      5740 1     
     5721      5739      5741 1     
     5722      5739      5742 1     
     5723      5739      5743 1     
     5724      5740      5744 1     
     5725      5740      5745 1     
     5726      5746      5747 1     
     5727      5746      5748 1     
     5728      5746      5749 1     
     5729      5747      5750 1     
     5730      5747      5751 1     
     5731      5740      5746 1     
     5732      5752      5753 1     
     5733      5752      5754 1     
     5734      5752      5755 1     
     5735      5753      5756 1     
     5736      5753      5757 1     
     5737      5747      5752 1     
     5738      5758      5759 1     
     5739      5758      5760 1     
     5740      5758      5761 1     
     5741      5759      5762 1     
     5742      5759      5763 1     
     5743      5753      5758 1     
     5744      5764      5765 1     
     5745      5764      5766 1     
     5746      5764      5767 1     
     5747      5765      5768 1     
     5748      5765      5769 1     
     5749      5759      5764 1     
     5750      5770      5771 1     
     5751      5770      5772 1     
     5752      5770      5773 1     
     5753      5771      5774 1     
     5754      5771      5775 1     
     5755      5765      5770 1     
     5756      5776      5777 1     
     5757      5776      5778 1     
     5758      5776      5779 1     
     5759      5777      5780 1     
     5760      5777      5781 1     
     5761      5771      5776 1     
     5762      5782      5783 1     
     5763      5782      5784 1     
     5764      5782      5785 1     
     5765      5783      5786 1     
     5766      5783      5787 1     
     5767      5777      5782 1     
     5768      5788      5789 1     
     5769      5788      5790 1     
     5770      5788      5791 1     
     5771      5789      5792 1     
     5772      5789      5793 1     
     5773      5783      5788 1     
     5774      5794      5795 1     
     5775      5794      5796 1     
     5776      5794      5797 1     
     5777      5795      5798 1     
     5778      5795      5799 1     
     5779      5789      5794 1     
     5780      5800      5801 1     
     5781      5800      5802 1     
     5782      5800      5803 1     
     5783      5801      5804 1     
     5784      5801      5805 1     
     5785      5795      5800 1     
     5786      5806      5807 1     
     5787      5806      5808 1     
     5788      5806      5809 1     
     5789      5807      5810 1     
     5790      5807      5811 1     
     5791      5801      5806 1     
     5792      5812      5813 1     
     5793      5812      5814 1     
     5794      5812      5815 1     
     5795      5813      5816 1     
     5796      5813      5817 1     
     5797      5807      5812 1     
     5798      5818      5819 1     
     5799      5818      5820 1     
     5800      5818      5821 1     
     5801      5819      5822 1     
     5802      5819      5823 1     
     5803      5813      5818 1     
     5804      5824      5825 1     
     5805      5824      5826 1     
     5806      5824      5827 1     
     5807      5825      5828 1     
     5808      5825      5829 1     
     5809      5819      5824 1     
     5810      5830      5831 1     
     5811      5830      5832 1     
     5812      5830      5833 1     
     5813      5831      5834 1     
     5814      5831      5835 1     
     5815      5825      5830 1     
     5816      5836      5837 1     
     5817      5836      5838 1     
     5818      5836      5839 1     
     5819      5837      5840 1     
     5820      5837      5841 1     
     5821      5831      5836 1     
     5822      5842      5843 1     
     5823      5842      5844 1     
     5824      5842      5845 1     
     5825      5843      5846 1     
     5826      5843      5847 1     
     5827      5837      5842 1     
     5828      5848      5849 1     
     5829      5848      5850 1     
     5830      5848      5851 1     
     5831      5849      5852 1     
     5832      5849      5853 1     
     5833      5843      5848 1     
     5834      5854      5855 1     
     5835      5854      5856 1     
     5836      5854      5857 1     
     5837      5855      5858 1     
     5838      5855      5859 1     
     5839      5849      5854 1     
     5840      5860      5861 1     
     5841      5860      5862 1     
     5842      5860      5863 1     
     5843      5861      5864 1     
     5844      5861      5865 1     
     5845      5855      5860 1     
     5846      5866      5867 1     
     5847      5866      5868 1     
     5848      5866      5869 1     
     5849      5867      5870 1     
     5850      5867      5871 1     
     5851      5861      5866 1     
     5852      5872      5873 1     
     5853      5872      5874 1     
     5854      5872      5875 1     
     5855      5873      5876 1     
     5856      5873      5877 1     
     5857      5867      5872 1     
     5858      5878      5879 1     
     5859      5878      5880 1     
     5860      5878      5881 1     
     5861      5879      5882 1     
     5862      5879      5883 1     
     5863      5873      5878 1     
     5864      5884      5885 1     
     5865      5884      5886 1     
     5866      5884      5887 1     
     5867      5885      5888 1     
     5868      5885      5889 1     
     5869      5879      5884 1     
     5870      5890      5891 1     
     5871      5890      5892 1     
     5872      5890      5893 1     
     5873      5891      5894 1     
     5874      5891      5895 1     
     5875      5885      5890 1     
     5876      5896      5897 1     
     5877      5896      5898 1     
     5878      5896      5899 1     
     5879      5897      5900 1     
     5880      5897      5901 1     
     5881      5891      5896 1     
     5882      5902      5903 1     
     5883      5902      5904 1     
     5884      5902      5905 1     
     5885      5903      5906 1     
     5886      5903      5907 1     
     5887      5897      5902 1     
     5888      5908      5909 1     
     5889      5908      5910 1     
     5890      5908      5911 1     
     5891      5909      5912 1     
     5892      5909      5913 1     
     5893      5903      5908 1     
     5894      5914      5915 1     
     5895      5914      5916 1     
     5896      5914      5917 1     
     5897      5915      5918 1     
     5898      5915      5919 1     
     5899      5909      5914 1     
     5900      5920      5921 1     
     5901      5920      5922 1     
     5902      5920      5923 1     
     5903      5921      5924 1     
     5904      5921      5925 1     
     5905      5915      5920 1     
     5906      5926      5927 1     
     5907      5926      5928 1     
     5908      5926      5929 1     
     5909      5927      5930 1     
     5910      5927      5931 1     
     5911      5921      5926 1     
     5912      5932      5933 1     
     5913      5932      5934 1     
     5914      5932      5935 1     
     5915      5933      5936 1     
     5916      5933      5937 1     
     5917      5927      5932 1     
     5918      5938      5939 1     
     5919      5938      5940 1     
     5920      5938      5941 1     
     5921      5939      5942 1     
     5922      5939      5943 1     
     5923      5933      5938 1     
     5924      5944      5945 1     
     5925      5944      5946 1     
     5926      5944      5947 1     
     5927      5945      5948 1     
     5928      5945      5949 1     
     5929      5939      5944 1     
     5930      5950      5951 1     
     5931      5950      5952 1     
     5932      5950      5953 1     
     5933      5951      5954 1     
     5934      5951      5955 1     
     5935      5945      5950 1     
     5936      5956      5957 1     
     5937      5956      5958 1     
     5938      5956      5959 1     
     5939      5957      5960 1     
     5940      5957      5961 1     
     5941      5951      5956 1     
     5942      5962      5963 1     
     5943      5962      5964 1     
     5944      5962      5965 1     
     5945      5963      5966 1     
     5946      5963      5967 1     
     5947      5957      5962 1     
     5948      5968      5969 1     
     5949      5968      5970 1     
     5950      5968      5971 1     
     5951      5969      5972 1     
     5952      5969      5973 1     
     5953      5963      5968 1     
     5954      5974      5975 1     
     5955      5974      5976 1     
     5956      5974      5977 1     
     5957      5975      5978 1     
     5958      5975      5979 1     
     5959      5969      5974 1     
     5960      5980      5981 1     
     5961      5980      5982 1     
     5962      5980      5983 1     
     5963      5981      5984 1     
     5964      5981      5985 1     
     5965      5975      5980 1     
     5966      5986      5987 1     
     5967      5986      5988 1     
     5968      5986      5989 1     
     5969      5987      5990 1     
     5970      5987      5991 1     
     5971      5981      5986 1     
     5972      5992      5993 1     
     5973      5992      5994 1     
     5974      5992      5995 1     
     5975      5993      5996 1     
     5976      5993      5997 1     
     5977      5987      5992 1     
     5978      5998      5999 1     
     5979      5998      6000 1     
     5980      5998      6001 1     
     5981      5999      6002 1     
     5982      5999      6003 1     
     5983      5993      5998 1     
     5984      6004      6005 1     
     5985      6004      6006 1     
     5986      6004      6007 1     
     5987      6005      6008 1     
     5988      6005      6009 1     
     5989      5999      6004 1     
     5990      6010      6011 1     
     5991      6010      6012 1     
     5992      6010      6013 1     
     5993      6011      6014 1     
     5994      6011      6015 1     
     5995      6005      6010 1     
     5996      6016      6017 1     
     5997      6016      6018 1     
     5998      6016      6019 1     
     5999      6017      6020 1     
     6000      6017      6021 1     
     6001      6011      6016 1     
     6002      6022      6023 1     
     6003      6022      6024 1     
     6004      6022      6025 1     
     6005      6023      6026 1     
     6006      6023      6027 1     
     6007      6017      6022 1     
     6008      6028      6029 1     
     6009      6028      6030 1     
     6010      6028      6031 1     
     6011      6029      6032 1     
     6012      6029      6033 1     
     6013      6023      6028 1     
     6014      6034      6035 1     
     6015      6034      6036 1     
     6016      6034      6037 1     
     6017      6035      6038 1     
     6018      6035      6039 1     
     6019      6035      6040 1     
     6020      6029      6034 1     
@<TRIPOS>SUBSTRUCTURE
 1     pe    1      
 2     pe    8      
 3     pe    14     
 4     pe    20     
 5     pe    26     
 6     pe    32     
 7     pe    38     
 8     pe    44     
 9     pe    50     
 10    pe    56     
 11    pe    62     
 12    pe    68     
 13    pe    74     
 14    pe    80     
 15    pe    86     
 16    pe    92     
 17    pe    98     
 18    pe    104    
 19    pe    110    
 20    pe    116    
 21    pe    122    
 22    pe    128    
 23    pe    134    
 24    pe    140    
 25    pe    146    
 26    pe    152    
 27    pe    158    
 28    pe    164    
 29    pe    170    
 30    pe    176    
 31    pe    182    
 32    pe    188    
 33    pe    194    
 34    pe    200    
 35    pe    206    
 36    pe    212    
 37    pe    218    
 38    pe    224    
 39    pe    230    
 40    pe    236    
 41    pe    242    
 42    pe    248    
 43    pe    254    
 44    pe    260    
 45    pe    266    
 46    pe    272    
 47    pe    278    
 48    pe    284    
 49    pe    290    
 50    pe    296    
 51    pe    303    
 52    pe    310    
 53    pe    316    
 54    pe    322    
 55    pe    328    
 56    pe    334    
 57    pe    340    
 58    pe    346    
 59    pe    352    
 60    pe    358    
 61    pe    364    
 62    pe    370    
 63    pe    376    
 64    pe    382    
 65    pe    388    
 66    pe    394    
 67    pe    400    
 68    pe    406    
 69    pe    412    
 70    pe    418    
 71    pe    424    
 72    pe    430    
 73    pe    436    
 74    pe    442    
 75    pe    448    
 76    pe    454    
 77    pe    460    
 78    pe    466    
 79    pe    472    
 80    pe    478    
 81    pe    484    
 82    pe    490    
 83    pe    496    
 84    pe    502    
 85    pe    508    
 86    pe    514    
 87    pe    520    
 88    pe    526    
 89    pe    532    
 90    pe    538    
 91    pe    544    
 92    pe    550    
 93    pe    556    
 94    pe    562    
 95    pe    568    
 96    pe    574    
 97    pe    580    
 98    pe    586    
 99    pe    592    
 100   pe    598    
 101   pe    605    
 102   pe    612    
 103   pe    618    
 104   pe    624    
 105   pe    630    
 106   pe    636    
 107   pe    642    
 108   pe    648    
 109   pe    654    
 110   pe    660    
 111   pe    666    
 112   pe    672    
 113   pe    678    
 114   pe    684    
 115   pe    690    
 116   pe    696    
 117   pe    702    
 118   pe    708    
 119   pe    714    
 120   pe    720    
 121   pe    726    
 122   pe    732    
 123   pe    738    
 124   pe    744    
 125   pe    750    
 126   pe    756    
 127   pe    762    
 128   pe    768    
 129   pe    774    
 130   pe    780    
 131   pe    786    
 132   pe    792    
 133   pe    798    
 134   pe    804    
 135   pe    810    
 136   pe    816    
 137   pe    822    
 138   pe    828    
 139   pe    834    
 140   pe    840    
 141   pe    846    
 142   pe    852    
 143   pe    858    
 144   pe    864    
 145   pe    870    
 146   pe    876    
 147   pe    882    
 148   pe    888    
 149   pe    894    
 150   pe    900    
 151   pe    907    
 152   pe    914    
 153   pe    920    
 154   pe    926    
 155   pe    932    
 156   pe    938    
 157   pe    944    
 158   pe    950    
 159   pe    956    
 160   pe    962    
 161   pe    968    
 162   pe    974    
 163   pe    980    
 164   pe    986    
 165   pe    992    
 166   pe    998    
 167   pe    1004   
 168   pe    1010   
 169   pe    1016   
 170   pe    1022   
 171   pe    1028   
 172   pe    1034   
 173   pe    1040   
 174   pe    1046   
 175   pe    1052   
 176   pe    1058   
 177   pe    1064   
 178   pe    1070   
 179   pe    1076   
 180   pe    1082   
 181   pe    1088   
 182   pe    1094   
 183   pe    1100   
 184   pe    1106   
 185   pe    1112   
 186   pe    1118   
 187   pe    1124   
 188   pe    1130   
 189   pe    1136   
 190   pe    1142   
 191   pe    1148   
 192   pe    1154   
 193   pe    1160   
 194   pe    1166   
 195   pe    1172   
 196   pe    1178   
 197   pe    1184   
 198   pe    1190   
 199   pe    1196   
 200   pe    1202   
 201   pe    1209   
 202   pe    1216   
 203   pe    1222   
 204   pe    1228   
 205   pe    1234   
 206   pe    1240   
 207   pe    1246   
 208   pe    1252   
 209   pe    1258   
 210   pe    1264   
 211   pe    1270   
 212   pe    1276   
 213   pe    1282   
 214   pe    1288   
 215   pe    1294   
 216   pe    1300   
 217   pe    1306   
 218   pe    1312   
 219   pe    1318   
 220   pe    1324   
 221   pe    1330   
 222   pe    1336   
 223   pe    1342   
 224   pe    1348   
 225   pe    1354   
 226   pe    1360   
 227   pe    1366   
 228   pe    1372   
 229   pe    1378   
 230   pe    1384   
 231   pe    1390   
 232   pe    1396   
 233   pe    1402   
 234   pe    1408   
 235   pe    1414   
 236   pe    1420   
 237   pe    1426   
 238   pe    1432   
 239   pe    1438   
 240   pe    1444   
 241   pe    1450   
 242   pe    1456   
 243   pe    1462   
 244   pe    1468   
 245   pe    1474   
 246   pe    1480   
 247   pe    1486   
 248   pe    1492   
 249   pe    1498   
 250   pe    1504   
 251   pe    1511   
 252   pe    1518   
 253   pe    1524   
 254   pe    1530   
 255   pe    1536   
 256   pe    1542   
 257   pe    1548   
 258   pe    1554   
 259   pe    1560   
 260   pe    1566   
 261   pe    1572   
 262   pe    1578   
 263   pe    1584   
 264   pe    1590   
 265   pe    1596   
 266   pe    1602   
 267   pe    1608   
 268   pe    1614   
 269   pe    1620   
 270   pe    1626   
 271   pe    1632   
 272   pe    1638   
 273   pe    1644   
 274   pe    1650   
 275   pe    1656   
 276   pe    1662   
 277   pe    1668   
 278   pe    1674   
 279   pe    1680   
 280   pe    1686   
 281   pe    1692   
 282   pe    1698   
 283   pe    1704   
 284   pe    1710   
 285   pe    1716   
 286   pe    1722   
 287   pe    1728   
 288   pe    1734   
 289   pe    1740   
 290   pe    1746   
 291   pe    1752   
 292   pe    1758   
 293   pe    1764   
 294   pe    1770   
 295   pe    1776   
 296   pe    1782   
 297   pe    1788   
 298   pe    1794   
 299   pe    1800   
 300   pe    1806   
 301   pe    1813   
 302   pe    1820   
 303   pe    1826   
 304   pe    1832   
 305   pe    1838   
 306   pe    1844   
 307   pe    1850   
 308   pe    1856   
 309   pe    1862   
 310   pe    1868   
 311   pe    1874   
 312   pe    1880   
 313   pe    1886   
 314   pe    1892   
 315   pe    1898   
 316   pe    1904   
 317   pe    1910   
 318   pe    1916   
 319   pe    1922   
 320   pe    1928   
 321   pe    1934   
 322   pe    1940   
 323   pe    1946   
 324   pe    1952   
 325   pe    1958   
 326   pe    1964   
 327   pe    1970   
 328   pe    1976   
 329   pe    1982   
 330   pe    1988   
 331   pe    1994   
 332   pe    2000   
 333   pe    2006   
 334   pe    2012   
 335   pe    2018   
 336   pe    2024   
 337   pe    2030   
 338   pe    2036   
 339   pe    2042   
 340   pe    2048   
 341   pe    2054   
 342   pe    2060   
 343   pe    2066   
 344   pe    2072   
 345   pe    2078   
 346   pe    2084   
 347   pe    2090   
 348   pe    2096   
 349   pe    2102   
 350   pe    2108   
 351   pe    2115   
 352   pe    2122   
 353   pe    2128   
 354   pe    2134   
 355   pe    2140   
 356   pe    2146   
 357   pe    2152   
 358   pe    2158   
 359   pe    2164   
 360   pe    2170   
 361   pe    2176   
 362   pe    2182   
 363   pe    2188   
 364   pe    2194   
 365   pe    2200   
 366   pe    2206   
 367   pe    2212   
 368   pe    2218   
 369   pe    2224   
 370   pe    2230   
 371   pe    2236   
 372   pe    2242   
 373   pe    2248   
 374   pe    2254   
 375   pe    2260   
 376   pe    2266   
 377   pe    2272   
 378   pe    2278   
 379   pe    2284   
 380   pe    2290   
 381   pe    2296   
 382   pe    2302   
 383   pe    2308   
 384   pe    2314   
 385   pe    2320   
 386   pe    2326   
 387   pe    2332   
 388   pe    2338   
 389   pe    2344   
 390   pe    2350   
 391   pe    2356   
 392   pe    2362   
 393   pe    2368   
 394   pe    2374   
 395   pe    2380   
 396   pe    2386   
 397   pe    2392   
 398   pe    2398   
 399   pe    2404   
 400   pe    2410   
 401   pe    2417   
 402   pe    2424   
 403   pe    2430   
 404   pe    2436   
 405   pe    2442   
 406   pe    2448   
 407   pe    2454   
 408   pe    2460   
 409   pe    2466   
 410   pe    2472   
 411   pe    2478   
 412   pe    2484   
 413   pe    2490   
 414   pe    2496   
 415   pe    2502   
 416   pe    2508   
 417   pe    2514   
 418   pe    2520   
 419   pe    2526   
 420   pe    2532   
 421   pe    2538   
 422   pe    2544   
 423   pe    2550   
 424   pe    2556   
 425   pe    2562   
 426   pe    2568   
 427   pe    2574   
 428   pe    2580   
 429   pe    2586   
 430   pe    2592   
 431   pe    2598   
 432   pe    2604   
 433   pe    2610   
 434   pe    2616   
 435   pe    2622   
 436   pe    2628   
 437   pe    2634   
 438   pe    2640   
 439   pe    2646   
 440   pe    2652   
 441   pe    2658   
 442   pe    2664   
 443   pe    2670   
 444   pe    2676   
 445   pe    2682   
 446   pe    2688   
 447   pe    2694   
 448   pe    2700   
 449   pe    2706   
 450   pe    2712   
 451   pe    2719   
 452   pe    2726   
 453   pe    2732   
 454   pe    2738   
 455   pe    2744   
 456   pe    2750   
 457   pe    2756   
 458   pe    2762   
 459   pe    2768   
 460   pe    2774   
 461   pe    2780   
 462   pe    2786   
 463   pe    2792   
 464   pe    2798   
 465   pe    2804   
 466   pe    2810   
 467   pe    2816   
 468   pe    2822   
 469   pe    2828   
 470   pe    2834   
 471   pe    2840   
 472   pe    2846   
 473   pe    2852   
 474   pe    2858   
 475   pe    2864   
 476   pe    2870   
 477   pe    2876   
 478   pe    2882   
 479   pe    2888   
 480   pe    2894   
 481   pe    2900   
 482   pe    2906   
 483   pe    2912   
 484   pe    2918   
 485   pe    2924   
 486   pe    2930   
 487   pe    2936   
 488   pe    2942   
 489   pe    2948   
 490   pe    2954   
 491   pe    2960   
 492   pe    2966   
 493   pe    2972   
 494   pe    2978   
 495   pe    2984   
 496   pe    2990   
 497   pe    2996   
 498   pe    3002   
 499   pe    3008   
 500   pe    3014   
 501   pe    3021   
 502   pe    3028   
 503   pe    3034   
 504   pe    3040   
 505   pe    3046   
 506   pe    3052   
 507   pe    3058   
 508   pe    3064   
 509   pe    3070   
 510   pe    3076   
 511   pe    3082   
 512   pe    3088   
 513   pe    3094   
 514   pe    3100   
 515   pe    3106   
 516   pe    3112   
 517   pe    3118   
 518   pe    3124   
 519   pe    3130   
 520   pe    3136   
 521   pe    3142   
 522   pe    3148   
 523   pe    3154   
 524   pe    3160   
 525   pe    3166   
 526   pe    3172   
 527   pe    3178   
 528   pe    3184   
 529   pe    3190   
 530   pe    3196   
 531   pe    3202   
 532   pe    3208   
 533   pe    3214   
 534   pe    3220   
 535   pe    3226   
 536   pe    3232   
 537   pe    3238   
 538   pe    3244   
 539   pe    3250   
 540   pe    3256   
 541   pe    3262   
 542   pe    3268   
 543   pe    3274   
 544   pe    3280   
 545   pe    3286   
 546   pe    3292   
 547   pe    3298   
 548   pe    3304   
 549   pe    3310   
 550   pe    3316   
 551   pe    3323   
 552   pe    3330   
 553   pe    3336   
 554   pe    3342   
 555   pe    3348   
 556   pe    3354   
 557   pe    3360   
 558   pe    3366   
 559   pe    3372   
 560   pe    3378   
 561   pe    3384   
 562   pe    3390   
 563   pe    3396   
 564   pe    3402   
 565   pe    3408   
 566   pe    3414   
 567   pe    3420   
 568   pe    3426   
 569   pe    3432   
 570   pe    3438   
 571   pe    3444   
 572   pe    3450   
 573   pe    3456   
 574   pe    3462   
 575   pe    3468   
 576   pe    3474   
 577   pe    3480   
 578   pe    3486   
 579   pe    3492   
 580   pe    3498   
 581   pe    3504   
 582   pe    3510   
 583   pe    3516   
 584   pe    3522   
 585   pe    3528   
 586   pe    3534   
 587   pe    3540   
 588   pe    3546   
 589   pe    3552   
 590   pe    3558   
 591   pe    3564   
 592   pe    3570   
 593   pe    3576   
 594   pe    3582   
 595   pe    3588   
 596   pe    3594   
 597   pe    3600   
 598   pe    3606   
 599   pe    3612   
 600   pe    3618   
 601   pe    3625   
 602   pe    3632   
 603   pe    3638   
 604   pe    3644   
 605   pe    3650   
 606   pe    3656   
 607   pe    3662   
 608   pe    3668   
 609   pe    3674   
 610   pe    3680   
 611   pe    3686   
 612   pe    3692   
 613   pe    3698   
 614   pe    3704   
 615   pe    3710   
 616   pe    3716   
 617   pe    3722   
 618   pe    3728   
 619   pe    3734   
 620   pe    3740   
 621   pe    3746   
 622   pe    3752   
 623   pe    3758   
 624   pe    3764   
 625   pe    3770   
 626   pe    3776   
 627   pe    3782   
 628   pe    3788   
 629   pe    3794   
 630   pe    3800   
 631   pe    3806   
 632   pe    3812   
 633   pe    3818   
 634   pe    3824   
 635   pe    3830   
 636   pe    3836   
 637   pe    3842   
 638   pe    3848   
 639   pe    3854   
 640   pe    3860   
 641   pe    3866   
 642   pe    3872   
 643   pe    3878   
 644   pe    3884   
 645   pe    3890   
 646   pe    3896   
 647   pe    3902   
 648   pe    3908   
 649   pe    3914   
 650   pe    3920   
 651   pe    3927   
 652   pe    3934   
 653   pe    3940   
 654   pe    3946   
 655   pe    3952   
 656   pe    3958   
 657   pe    3964   
 658   pe    3970   
 659   pe    3976   
 660   pe    3982   
 661   pe    3988   
 662   pe    3994   
 663   pe    4000   
 664   pe    4006   
 665   pe    4012   
 666   pe    4018   
 667   pe    4024   
 668   pe    4030   
 669   pe    4036   
 670   pe    4042   
 671   pe    4048   
 672   pe    4054   
 673   pe    4060   
 674   pe    4066   
 675   pe    4072   
 676   pe    4078   
 677   pe    4084   
 678   pe    4090   
 679   pe    4096   
 680   pe    4102   
 681   pe    4108   
 682   pe    4114   
 683   pe    4120   
 684   pe    4126   
 685   pe    4132   
 686   pe    4138   
 687   pe    4144   
 688   pe    4150   
 689   pe    4156   
 690   pe    4162   
 691   pe    4168   
 692   pe    4174   
 693   pe    4180   
 694   pe    4186   
 695   pe    4192   
 696   pe    4198   
 697   pe    4204   
 698   pe    4210   
 699   pe    4216   
 700   pe    4222   
 701   pe    4229   
 702   pe    4236   
 703   pe    4242   
 704   pe    4248   
 705   pe    4254   
 706   pe    4260   
 707   pe    4266   
 708   pe    4272   
 709   pe    4278   
 710   pe    4284   
 711   pe    4290   
 712   pe    4296   
 713   pe    4302   
 714   pe    4308   
 715   pe    4314   
 716   pe    4320   
 717   pe    4326   
 718   pe    4332   
 719   pe    4338   
 720   pe    4344   
 721   pe    4350   
 722   pe    4356   
 723   pe    4362   
 724   pe    4368   
 725   pe    4374   
 726   pe    4380   
 727   pe    4386   
 728   pe    4392   
 729   pe    4398   
 730   pe    4404   
 731   pe    4410   
 732   pe    4416   
 733   pe    4422   
 734   pe    4428   
 735   pe    4434   
 736   pe    4440   
 737   pe    4446   
 738   pe    4452   
 739   pe    4458   
 740   pe    4464   
 741   pe    4470   
 742   pe    4476   
 743   pe    4482   
 744   pe    4488   
 745   pe    4494   
 746   pe    4500   
 747   pe    4506   
 748   pe    4512   
 749   pe    4518   
 750   pe    4524   
 751   pe    4531   
 752   pe    4538   
 753   pe    4544   
 754   pe    4550   
 755   pe    4556   
 756   pe    4562   
 757   pe    4568   
 758   pe    4574   
 759   pe    4580   
 760   pe    4586   
 761   pe    4592   
 762   pe    4598   
 763   pe    4604   
 764   pe    4610   
 765   pe    4616   
 766   pe    4622   
 767   pe    4628   
 768   pe    4634   
 769   pe    4640   
 770   pe    4646   
 771   pe    4652   
 772   pe    4658   
 773   pe    4664   
 774   pe    4670   
 775   pe    4676   
 776   pe    4682   
 777   pe    4688   
 778   pe    4694   
 779   pe    4700   
 780   pe    4706   
 781   pe    4712   
 782   pe    4718   
 783   pe    4724   
 784   pe    4730   
 785   pe    4736   
 786   pe    4742   
 787   pe    4748   
 788   pe    4754   
 789   pe    4760   
 790   pe    4766   
 791   pe    4772   
 792   pe    4778   
 793   pe    4784   
 794   pe    4790   
 795   pe    4796   
 796   pe    4802   
 797   pe    4808   
 798   pe    4814   
 799   pe    4820   
 800   pe    4826   
 801   pe    4833   
 802   pe    4840   
 803   pe    4846   
 804   pe    4852   
 805   pe    4858   
 806   pe    4864   
 807   pe    4870   
 808   pe    4876   
 809   pe    4882   
 810   pe    4888   
 811   pe    4894   
 812   pe    4900   
 813   pe    4906   
 814   pe    4912   
 815   pe    4918   
 816   pe    4924   
 817   pe    4930   
 818   pe    4936   
 819   pe    4942   
 820   pe    4948   
 821   pe    4954   
 822   pe    4960   
 823   pe    4966   
 824   pe    4972   
 825   pe    4978   
 826   pe    4984   
 827   pe    4990   
 828   pe    4996   
 829   pe    5002   
 830   pe    5008   
 831   pe    5014   
 832   pe    5020   
 833   pe    5026   
 834   pe    5032   
 835   pe    5038   
 836   pe    5044   
 837   pe    5050   
 838   pe    5056   
 839   pe    5062   
 840   pe    5068   
 841   pe    5074   
 842   pe    5080   
 843   pe    5086   
 844   pe    5092   
 845   pe    5098   
 846   pe    5104   
 847   pe    5110   
 848   pe    5116   
 849   pe    5122   
 850   pe    5128   
 851   pe    5135   
 852   pe    5142   
 853   pe    5148   
 854   pe    5154   
 855   pe    5160   
 856   pe    5166   
 857   pe    5172   
 858   pe    5178   
 859   pe    5184   
 860   pe    5190   
 861   pe    5196   
 862   pe    5202   
 863   pe    5208   
 864   pe    5214   
 865   pe    5220   
 866   pe    5226   
 867   pe    5232   
 868   pe    5238   
 869   pe    5244   
 870   pe    5250   
 871   pe    5256   
 872   pe    5262   
 873   pe    5268   
 874   pe    5274   
 875   pe    5280   
 876   pe    5286   
 877   pe    5292   
 878   pe    5298   
 879   pe    5304   
 880   pe    5310   
 881   pe    5316   
 882   pe    5322   
 883   pe    5328   
 884   pe    5334   
 885   pe    5340   
 886   pe    5346   
 887   pe    5352   
 888   pe    5358   
 889   pe    5364   
 890   pe    5370   
 891   pe    5376   
 892   pe    5382   
 893   pe    5388   
 894   pe    5394   
 895   pe    5400   
 896   pe    5406   
 897   pe    5412   
 898   pe    5418   
 899   pe    5424   
 900   pe    5430   
 901   pe    5437   
 902   pe    5444   
 903   pe    5450   
 904   pe    5456   
 905   pe    5462   
 906   pe    5468   
 907   pe    5474   
 908   pe    5480   
 909   pe    5486   
 910   pe    5492   
 911   pe    5498   
 912   pe    5504   
 913   pe    5510   
 914   pe    5516   
 915   pe    5522   
 916   pe    5528   
 917   pe    5534   
 918   pe    5540   
 919   pe    5546   
 920   pe    5552   
 921   pe    5558   
 922   pe    5564   
 923   pe    5570   
 924   pe    5576   
 925   pe    5582   
 926   pe    5588   
 927   pe    5594   
 928   pe    5600   
 929   pe    5606   
 930   pe    5612   
 931   pe    5618   
 932   pe    5624   
 933   pe    5630   
 934   pe    5636   
 935   pe    5642   
 936   pe    5648   
 937   pe    5654   
 938   pe    5660   
 939   pe    5666   
 940   pe    5672   
 941   pe    5678   
 942   pe    5684   
 943   pe    5690   
 944   pe    5696   
 945   pe    5702   
 946   pe    5708   
 947   pe    5714   
 948   pe    5720   
 949   pe    5726   
 950   pe    5732   
 951   pe    5739   
 952   pe    5746   
 953   pe    5752   
 954   pe    5758   
 955   pe    5764   
 956   pe    5770   
 957   pe    5776   
 958   pe    5782   
 959   pe    5788   
 960   pe    5794   
 961   pe    5800   
 962   pe    5806   
 963   pe    5812   
 964   pe    5818   
 965   pe    5824   
 966   pe    5830   
 967   pe    5836   
 968   pe    5842   
 969   pe    5848   
 970   pe    5854   
 971   pe    5860   
 972   pe    5866   
 973   pe    5872   
 974   pe    5878   
 975   pe    5884   
 976   pe    5890   
 977   pe    5896   
 978   pe    5902   
 979   pe    5908   
 980   pe    5914   
 981   pe    5920   
 982   pe    5926   
 983   pe    5932   
 984   pe    5938   
 985   pe    5944   
 986   pe    5950   
 987   pe    5956   
 988   pe    5962   
 989   pe    5968   
 990   pe    5974   
 991   pe    5980   
 992   pe    5986   
 993   pe    5992   
 994   pe    5998   
 995   pe    6004   
 996   pe    6010   
 997   pe    6016   
 998   pe    6022   
 999   pe    6028   
 1000  pe    6034   
@<TRIPOS>COMMENT
 WM_BOX
        p         0.000000000000000        45.355800000000002         0.000000000000000         0.000000000000000
        p         0.000000000000000         0.000000000000000        45.355800000000002         0.000000000000000
        p         0.000000000000000         0.000000000000000         0.000000000000000        45.355800000000002
 WM_BACKBONE      2040
        3
        1
        2
        8
        9
       14
       15
       20
       21
       26
       27
       32
       33
       38
       39
       44
       45
       50
       51
       56
       57
       62
       63
       68
       69
       74
       75
       80
       81
       86
       87
       92
       93
       98
       99
      104
      105
      110
      111
      116
      117
      122
      123
      128
      129
      134
      135
      140
      141
      146
      147
      152
      153
      158
      159
      164
      165
      170
      171
      176
      177
      182
      183
      188
      189
      194
      195
      200
      201
      206
      207
      212
      213
      218
      219
      224
      225
      230
      231
      236
      237
      242
      243
      248
      249
      254
      255
      260
      261
      266
      267
      272
      273
      278
      279
      284
      285
      290
      291
      296
      297
      301
      305
      303
      304
      310
      311
      316
      317
      322
      323
      328
      329
      334
      335
      340
      341
      346
      347
      352
      353
      358
      359
      364
      365
      370
      371
      376
      377
      382
      383
      388
      389
      394
      395
      400
      401
      406
      407
      412
      413
      418
      419
      424
      425
      430
      431
      436
      437
      442
      443
      448
      449
      454
      455
      460
      461
      466
      467
      472
      473
      478
      479
      484
      485
      490
      491
      496
      497
      502
      503
      508
      509
      514
      515
      520
      521
      526
      527
      532
      533
      538
      539
      544
      545
      550
      551
      556
      557
      562
      563
      568
      569
      574
      575
      580
      581
      586
      587
      592
      593
      598
      599
      603
      607
      605
      606
      612
      613
      618
      619
      624
      625
      630
      631
      636
      637
      642
      643
      648
      649
      654
      655
      660
      661
      666
      667
      672
      673
      678
      679
      684
      685
      690
      691
      696
      697
      702
      703
      708
      709
      714
      715
      720
      721
      726
      727
      732
      733
      738
      739
      744
      745
      750
      751
      756
      757
      762
      763
      768
      769
      774
      775
      780
      781
      786
      787
      792
      793
      798
      799
      804
      805
      810
      811
      816
      817
      822
      823
      828
      829
      834
      835
      840
      841
      846
      847
      852
      853
      858
      859
      864
      865
      870
      871
      876
      877
      882
      883
      888
      889
      894
      895
      900
      901
      905
      909
      907
      908
      914
      915
      920
      921
      926
      927
      932
      933
      938
      939
      944
      945
      950
      951
      956
      957
      962
      963
      968
      969
      974
      975
      980
      981
      986
      987
      992
      993
      998
      999
     1004
     1005
     1010
     1011
     1016
     1017
     1022
     1023
     1028
     1029
     1034
     1035
     1040
     1041
     1046
     1047
     1052
     1053
     1058
     1059
     1064
     1065
     1070
     1071
     1076
     1077
     1082
     1083
     1088
     1089
     1094
     1095
     1100
     1101
     1106
     1107
     1112
     1113
     1118
     1119
     1124
     1125
     1130
     1131
     1136
     1137
     1142
     1143
     1148
     1149
     1154
     1155
     1160
     1161
     1166
     1167
     1172
     1173
     1178
     1179
     1184
     1185
     1190
     1191
     1196
     1197
     1202
     1203
     1207
     1211
     1209
     1210
     1216
     1217
     1222
     1223
     1228
     1229
     1234
     1235
     1240
     1241
     1246
     1247
     1252
     1253
     1258
     1259
     1264
     1265
     1270
     1271
     1276
     1277
     1282
     1283
     1288
     1289
     1294
     1295
     1300
     1301
     1306
     1307
     1312
     1313
     1318
     1319
     1324
     1325
     1330
     1331
     1336
     1337
     1342
     1343
     1348
     1349
     1354
     1355
     1360
     1361
     1366
     1367
     1372
     1373
     1378
     1379
     1384
     1385
     1390
     1391
     1396
     1397
     1402
     1403
     1408
     1409
     1414
     1415
     1420
     1421
     1426
     1427
     1432
     1433
     1438
     1439
     1444
     1445
     1450
     1451
     1456
     1457
     1462
     1463
     1468
     1469
     1474
     1475
     1480
     1481
     1486
     1487
     1492
     1493
     1498
     1499
     1504
     1505
     1509
     1513
     1511
     1512
     1518
     1519
     1524
     1525
     1530
     1531
     1536
     1537
     1542
     1543
     1548
     1549
     1554
     1555
     1560
     1561
     1566
     1567
     1572
     1573
     1578
     1579
     1584
     1585
     1590
     1591
     1596
     1597
     1602
     1603
     1608
     1609
     1614
     1615
     1620
     1621
     1626
     1627
     1632
     1633
     1638
     1639
     1644
     1645
     1650
     1651
     1656
     1657
     1662
     1663
     1668
     1669
     1674
     1675
     1680
     1681
     1686
     1687
     1692
     1693
     1698
     1699
     1704
     1705
     1710
     1711
     1716
     1717
     1722
     1723
     1728
     1729
     1734
     1735
     1740
     1741
     1746
     1747
     1752
     1753
     1758
     1759
     1764
     1765
     1770
     1771
     1776
     1777
     1782
     1783
     1788
     1789
     1794
     1795
     1800
     1801
     1806
     1807
     1811
     1815
     1813
     1814
     1820
     1821
     1826
     1827
     1832
     1833
     1838
     1839
     1844
     1845
     1850
     1851
     1856
     1857
     1862
     1863
     1868
     1869
     1874
     1875
     1880
     1881
     1886
     1887
     1892
     1893
     1898
     1899
     1904
     1905
     1910
     1911
     1916
     1917
     1922
     1923
     1928
     1929
     1934
     1935
     1940
     1941
     1946
     1947
     1952
     1953
     1958
     1959
     1964
     1965
     1970
     1971
     1976
     1977
     1982
     1983
     1988
     1989
     1994
     1995
     2000
     2001
     2006
     2007
     2012
     2013
     2018
     2019
     2024
     2025
     2030
     2031
     2036
     2037
     2042
     2043
     2048
     2049
     2054
     2055
     2060
     2061
     2066
     2067
     2072
     2073
     2078
     2079
     2084
     2085
     2090
     2091
     2096
     2097
     2102
     2103
     2108
     2109
     2113
     2117
     2115
     2116
     2122
     2123
     2128
     2129
     2134
     2135
     2140
     2141
     2146
     2147
     2152
     2153
     2158
     2159
     2164
     2165
     2170
     2171
     2176
     2177
     2182
     2183
     2188
     2189
     2194
     2195
     2200
     2201
     2206
     2207
     2212
     2213
     2218
     2219
     2224
     2225
     2230
     2231
     2236
     2237
     2242
     2243
     2248
     2249
     2254
     2255
     2260
     2261
     2266
     2267
     2272
     2273
     2278
     2279
     2284
     2285
     2290
     2291
     2296
     2297
     2302
     2303
     2308
     2309
     2314
     2315
     2320
     2321
     2326
     2327
     2332
     2333
     2338
     2339
     2344
     2345
     2350
     2351
     2356
     2357
     2362
     2363
     2368
     2369
     2374
     2375
     2380
     2381
     2386
     2387
     2392
     2393
     2398
     2399
     2404
     2405
     2410
     2411
     2415
     2419
     2417
     2418
     2424
     2425
     2430
     2431
     2436
     2437
     2442
     2443
     2448
     2449
     2454
     2455
     2460
     2461
     2466
     2467
     2472
     2473
     2478
     2479
     2484
     2485
     2490
     2491
     2496
     2497
     2502
     2503
     2508
     2509
     2514
     2515
     2520
     2521
     2526
     2527
     2532
     2533
     2538
     2539
     2544
     2545
     2550
     2551
     2556
     2557
     2562
     2563
     2568
     2569
     2574
     2575
     2580
     2581
     2586
     2587
     2592
     2593
     2598
     2599
     2604
     2605
     2610
     2611
     2616
     2617
     2622
     2623
     2628
     2629
     2634
     2635
     2640
     2641
     2646
     2647
     2652
     2653
     2658
     2659
     2664
     2665
     2670
     2671
     2676
     2677
     2682
     2683
     2688
     2689
     2694
     2695
     2700
     2701
     2706
     2707
     2712
     2713
     2717
     2721
     2719
     2720
     2726
     2727
     2732
     2733
     2738
     2739
     2744
     2745
     2750
     2751
     2756
     2757
     2762
     2763
     2768
     2769
     2774
     2775
     2780
     2781
     2786
     2787
     2792
     2793
     2798
     2799
     2804
     2805
     2810
     2811
     2816
     2817
     2822
     2823
     2828
     2829
     2834
     2835
     2840
     2841
     2846
     2847
     2852
     2853
     2858
     2859
     2864
     2865
     2870
     2871
     2876
     2877
     2882
     2883
     2888
     2889
     2894
     2895
     2900
     2901
     2906
     2907
     2912
     2913
     2918
     2919
     2924
     2925
     2930
     2931
     2936
     2937
     2942
     2943
     2948
     2949
     2954
     2955
     2960
     2961
     2966
     2967
     2972
     2973
     2978
     2979
     2984
     2985
     2990
     2991
     2996
     2997
     3002
     3003
     3008
     3009
     3014
     3015
     3019
     3023
     3021
     3022
     3028
     3029
     3034
     3035
     3040
     3041
     3046
     3047
     3052
     3053
     3058
     3059
     3064
     3065
     3070
     3071
     3076
     3077
     3082
     3083
     3088
     3089
     3094
     3095
     3100
     3101
     3106
     3107
     3112
     3113
     3118
     3119
     3124
     3125
     3130
     3131
     3136
     3137
     3142
     3143
     3148
     3149
     3154
     3155
     3160
     3161
     3166
     3167
     3172
     3173
     3178
     3179
     3184
     3185
     3190
     3191
     3196
     3197
     3202
     3203
     3208
     3209
     3214
     3215
     3220
     3221
     3226
     3227
     3232
     3233
     3238
     3239
     3244
     3245
     3250
     3251
     3256
     3257
     3262
     3263
     3268
     3269
     3274
     3275
     3280
     3281
     3286
     3287
     3292
     3293
     3298
     3299
     3304
     3305
     3310
     3311
     3316
     3317
     3321
     3325
     3323
     3324
     3330
     3331
     3336
     3337
     3342
     3343
     3348
     3349
     3354
     3355
     3360
     3361
     3366
     3367
     3372
     3373
     3378
     3379
     3384
     3385
     3390
     3391
     3396
     3397
     3402
     3403
     3408
     3409
     3414
     3415
     3420
     3421
     3426
     3427
     3432
     3433
     3438
     3439
     3444
     3445
     3450
     3451
     3456
     3457
     3462
     3463
     3468
     3469
     3474
     3475
     3480
     3481
     3486
     3487
     3492
     3493
     3498
     3499
     3504
     3505
     3510
     3511
     3516
     3517
     3522
     3523
     3528
     3529
     3534
     3535
     3540
     3541
     3546
     3547
     3552
     3553
     3558
     3559
     3564
     3565
     3570
     3571
     3576
     3577
     3582
     3583
     3588
     3589
     3594
     3595
     3600
     3601
     3606
     3607
     3612
     3613
     3618
     3619
     3623
     3627
     3625
     3626
     3632
     3633
     3638
     3639
     3644
     3645
     3650
     3651
     3656
     3657
     3662
     3663
     3668
     3669
     3674
     3675
     3680
     3681
     3686
     3687
     3692
     3693
     3698
     3699
     3704
     3705
     3710
     3711
     3716
     3717
     3722
     3723
     3728
     3729
     3734
     3735
     3740
     3741
     3746
     3747
     3752
     3753
     3758
     3759
     3764
     3765
     3770
     3771
     3776
     3777
     3782
     3783
     3788
     3789
     3794
     3795
     3800
     3801
     3806
     3807
     3812
     3813
     3818
     3819
     3824
     3825
     3830
     3831
     3836
     3837
     3842
     3843
     3848
     3849
     3854
     3855
     3860
     3861
     3866
     3867
     3872
     3873
     3878
     3879
     3884
     3885
     3890
     3891
     3896
     3897
     3902
     3903
     3908
     3909
     3914
     3915
     3920
     3921
     3925
     3929
     3927
     3928
     3934
     3935
     3940
     3941
     3946
     3947
     3952
     3953
     3958
     3959
     3964
     3965
     3970
     3971
     3976
     3977
     3982
     3983
     3988
     3989
     3994
     3995
     4000
     4001
     4006
     4007
     4012
     4013
     4018
     4019
     4024
     4025
     4030
     4031
     4036
     4037
     4042
     4043
     4048
     4049
     4054
     4055
     4060
     4061
     4066
     4067
     4072
     4073
     4078
     4079
     4084
     4085
     4090
     4091
     4096
     4097
     4102
     4103
     4108
     4109
     4114
     4115
     4120
     4121
     4126
     4127
     4132
     4133
     4138
     4139
     4144
     4145
     4150
     4151
     4156
     4157
     4162
     4163
     4168
     4169
     4174
     4175
     4180
     4181
     4186
     4187
     4192
     4193
     4198
     4199
     4204
     4205
     4210
     4211
     4216
     4217
     4222
     4223
     4227
     4231
     4229
     4230
     4236
     4237
     4242
     4243
     4248
     4249
     4254
     4255
     4260
     4261
     4266
     4267
     4272
     4273
     4278
     4279
     4284
     4285
     4290
     4291
     4296
     4297
     4302
     4303
     4308
     4309
     4314
     4315
     4320
     4321
     4326
     4327
     4332
     4333
     4338
     4339
     4344
     4345
     4350
     4351
     4356
     4357
     4362
     4363
     4368
     4369
     4374
     4375
     4380
     4381
     4386
     4387
     4392
     4393
     4398
     4399
     4404
     4405
     4410
     4411
     4416
     4417
     4422
     4423
     4428
     4429
     4434
     4435
     4440
     4441
     4446
     4447
     4452
     4453
     4458
     4459
     4464
     4465
     4470
     4471
     4476
     4477
     4482
     4483
     4488
     4489
     4494
     4495
     4500
     4501
     4506
     4507
     4512
     4513
     4518
     4519
     4524
     4525
     4529
     4533
     4531
     4532
     4538
     4539
     4544
     4545
     4550
     4551
     4556
     4557
     4562
     4563
     4568
     4569
     4574
     4575
     4580
     4581
     4586
     4587
     4592
     4593
     4598
     4599
     4604
     4605
     4610
     4611
     4616
     4617
     4622
     4623
     4628
     4629
     4634
     4635
     4640
     4641
     4646
     4647
     4652
     4653
     4658
     4659
     4664
     4665
     4670
     4671
     4676
     4677
     4682
     4683
     4688
     4689
     4694
     4695
     4700
     4701
     4706
     4707
     4712
     4713
     4718
     4719
     4724
     4725
     4730
     4731
     4736
     4737
     4742
     4743
     4748
     4749
     4754
     4755
     4760
     4761
     4766
     4767
     4772
     4773
     4778
     4779
     4784
     4785
     4790
     4791
     4796
     4797
     4802
     4803
     4808
     4809
     4814
     4815
     4820
     4821
     4826
     4827
     4831
     4835
     4833
     4834
     4840
     4841
     4846
     4847
     4852
     4853
     4858
     4859
     4864
     4865
     4870
     4871
     4876
     4877
     4882
     4883
     4888
     4889
     4894
     4895
     4900
     4901
     4906
     4907
     4912
     4913
     4918
     4919
     4924
     4925
     4930
     4931
     4936
     4937
     4942
     4943
     4948
     4949
     4954
     4955
     4960
     4961
     4966
     4967
     4972
     4973
     4978
     4979
     4984
     4985
     4990
     4991
     4996
     4997
     5002
     5003
     5008
     5009
     5014
     5015
     5020
     5021
     5026
     5027
     5032
     5033
     5038
     5039
     5044
     5045
     5050
     5051
     5056
     5057
     5062
     5063
     5068
     5069
     5074
     5075
     5080
     5081
     5086
     5087
     5092
     5093
     5098
     5099
     5104
     5105
     5110
     5111
     5116
     5117
     5122
     5123
     5128
     5129
     5133
     5137
     5135
     5136
     5142
     5143
     5148
     5149
     5154
     5155
     5160
     5161
     5166
     5167
     5172
     5173
     5178
     5179
     5184
     5185
     5190
     5191
     5196
     5197
     5202
     5203
     5208
     5209
     5214
     5215
     5220
     5221
     5226
     5227
     5232
     5233
     5238
     5239
     5244
     5245
     5250
     5251
     5256
     5257
     5262
     5263
     5268
     5269
     5274
     5275
     5280
     5281
     5286
     5287
     5292
     5293
     5298
     5299
     5304
     5305
     5310
     5311
     5316
     5317
     5322
     5323
     5328
     5329
     5334
     5335
     5340
     5341
     5346
     5347
     5352
     5353
     5358
     5359
     5364
     5365
     5370
     5371
     5376
     5377
     5382
     5383
     5388
     5389
     5394
     5395
     5400
     5401
     5406
     5407
     5412
     5413
     5418
     5419
     5424
     5425
     5430
     5431
     5435
     5439
     5437
     5438
     5444
     5445
     5450
     5451
     5456
     5457
     5462
     5463
     5468
     5469
     5474
     5475
     5480
     5481
     5486
     5487
     5492
     5493
     5498
     5499
     5504
     5505
     5510
     5511
     5516
     5517
     5522
     5523
     5528
     5529
     5534
     5535
     5540
     5541
     5546
     5547
     5552
     5553
     5558
     5559
     5564
     5565
     5570
     5571
     5576
     5577
     5582
     5583
     5588
     5589
     5594
     5595
     5600
     5601
     5606
     5607
     5612
     5613
     5618
     5619
     5624
     5625
     5630
     5631
     5636
     5637
     5642
     5643
     5648
     5649
     5654
     5655
     5660
     5661
     5666
     5667
     5672
     5673
     5678
     5679
     5684
     5685
     5690
     5691
     5696
     5697
     5702
     5703
     5708
     5709
     5714
     5715
     5720
     5721
     5726
     5727
     5732
     5733
     5737
     5741
     5739
     5740
     5746
     5747
     5752
     5753
     5758
     5759
     5764
     5765
     5770
     5771
     5776
     5777
     5782
     5783
     5788
     5789
     5794
     5795
     5800
     5801
     5806
     5807
     5812
     5813
     5818
     5819
     5824
     5825
     5830
     5831
     5836
     5837
     5842
     5843
     5848
     5849
     5854
     5855
     5860
     5861
     5866
     5867
     5872
     5873
     5878
     5879
     5884
     5885
     5890
     5891
     5896
     5897
     5902
     5903
     5908
     5909
     5914
     5915
     5920
     5921
     5926
     5927
     5932
     5933
     5938
     5939
     5944
     5945
     5950
     5951
     5956
     5957
     5962
     5963
     5968
     5969
     5974
     5975
     5980
     5981
     5986
     5987
     5992
     5993
     5998
     5999
     6004
     6005
     6010
     6011
     6016
     6017
     6022
     6023
     6028
     6029
     6034
     6035
     6039
