@<TRIPOS>MOLECULE
Winmostar
      4110      4080       450         0         0
SMALL
USER_CHARGES


@<TRIPOS>ATOM
        1 C1           30.652700000        -0.909400000        13.597800000 C.3       1 pp      -0.086043058
        2 C2           31.828600000        -0.668300000        14.557600000 C.3       1 pp      -0.074342058
        3 H3           30.835200000        -0.388500000        12.658000000 H         1 pp       0.039424942
        4 H4           30.569200000        -1.976400000        13.397200000 H         1 pp       0.039424942
        5 H5           29.715200000        -0.561400000        14.028000000 H         1 pp       0.039424942
        6 H6           32.716600000        -1.074100000        14.072800000 H         1 pp       0.043757942
        7 C8           31.639600000        -1.462700000        15.859700000 C.3       1 pp      -0.086043058
        8 H9           30.683600000        -1.233400000        16.326300000 H         1 pp       0.039424942
        9 H10          31.672100000        -2.528500000        15.634500000 H         1 pp       0.039424942
       10 H11          32.444000000        -1.225900000        16.555000000 H         1 pp       0.039424942
       11 C1           32.119800000         0.827445000        14.807500000 C.3       2 pp      -0.086043058
       12 C2           30.977900000         1.645360000        15.457300000 C.3       2 pp      -0.074342058
       13 H4           32.385400000         1.280760000        13.853600000 H         2 pp       0.039424942
       14 H5           33.006000000         0.882962000        15.436400000 H         2 pp       0.039424942
       15 H6           30.198300000         0.969567000        15.789000000 H         2 pp       0.043757942
       16 C8           30.380900000         2.576920000        14.390700000 C.3       2 pp      -0.086043058
       17 H9           31.064300000         3.402650000        14.204600000 H         2 pp       0.039424942
       18 H10          30.210200000         2.033500000        13.462200000 H         2 pp       0.039424942
       19 H11          29.421000000         2.963920000        14.723900000 H         2 pp       0.039424942
       20 C1           31.547700000         2.406650000        16.682800000 C.3       3 pp      -0.086043058
       21 C2           30.589400000         3.230360000        17.580800000 C.3       3 pp      -0.074342058
       22 H4           32.355000000         3.054880000        16.345800000 H         3 pp       0.039424942
       23 H5           31.983800000         1.658810000        17.345900000 H         3 pp       0.039424942
       24 H6           31.094000000         3.287640000        18.545300000 H         3 pp       0.043757942
       25 C8           29.262700000         2.493930000        17.837400000 C.3       3 pp      -0.086043058
       26 H9           28.613300000         2.550910000        16.967000000 H         3 pp       0.039424942
       27 H10          29.470100000         1.451290000        18.072300000 H         3 pp       0.039424942
       28 H11          28.746500000         2.930600000        18.688200000 H         3 pp       0.039424942
       29 C1           30.424800000         4.693270000        17.101200000 C.3       4 pp      -0.086043058
       30 C2           29.648100000         5.588210000        18.093600000 C.3       4 pp      -0.074342058
       31 H4           29.919400000         4.726770000        16.141400000 H         4 pp       0.039424942
       32 H5           31.422200000         5.108760000        16.966500000 H         4 pp       0.039424942
       33 H6           29.574800000         5.097960000        19.060200000 H         4 pp       0.043757942
       34 C8           28.226100000         5.836380000        17.570200000 C.3       4 pp      -0.086043058
       35 H9           28.258200000         6.464840000        16.679600000 H         4 pp       0.039424942
       36 H10          27.743600000         4.892380000        17.325500000 H         4 pp       0.039424942
       37 H11          27.637400000         6.335920000        18.339800000 H         4 pp       0.039424942
       38 C1           30.321300000         6.962520000        18.273900000 C.3       5 pp      -0.086043058
       39 C2           31.481600000         6.940410000        19.290400000 C.3       5 pp      -0.074342058
       40 H4           29.580200000         7.680750000        18.623900000 H         5 pp       0.039424942
       41 H5           30.675600000         7.299070000        17.301900000 H         5 pp       0.039424942
       42 H6           32.019700000         5.999450000        19.212500000 H         5 pp       0.043757942
       43 C8           30.944500000         7.073730000        20.726000000 C.3       5 pp      -0.086043058
       44 H9           30.507900000         8.061780000        20.872500000 H         5 pp       0.039424942
       45 H10          30.187200000         6.318950000        20.928300000 H         5 pp       0.039424942
       46 H11          31.761300000         6.935980000        21.434800000 H         5 pp       0.039424942
       47 C1           32.423500000         8.134240000        19.036600000 C.3       6 pp      -0.086043058
       48 C2           33.550200000         7.860850000        18.017800000 C.3       6 pp      -0.074342058
       49 H4           32.881400000         8.441730000        19.976500000 H         6 pp       0.039424942
       50 H5           31.804700000         8.954270000        18.679700000 H         6 pp       0.039424942
       51 H6           33.149900000         7.298160000        17.177700000 H         6 pp       0.043757942
       52 C8           34.678100000         7.032030000        18.660000000 C.3       6 pp      -0.086043058
       53 H9           35.108400000         7.570240000        19.505000000 H         6 pp       0.039424942
       54 H10          34.301900000         6.072410000        19.007600000 H         6 pp       0.039424942
       55 H11          35.458500000         6.839120000        17.924000000 H         6 pp       0.039424942
       56 C1           34.153500000         9.204510000        17.542100000 C.3       7 pp      -0.086043058
       57 C2           33.843500000         9.611530000        16.086400000 C.3       7 pp      -0.074342058
       58 H4           35.237400000         9.166460000        17.644000000 H         7 pp       0.039424942
       59 H5           33.812200000        10.002100000        18.198100000 H         7 pp       0.039424942
       60 H6           34.338800000        10.566000000        15.941400000 H         7 pp       0.043757942
       61 C8           32.339900000         9.861210000        15.874500000 C.3       7 pp      -0.086043058
       62 H9           31.782000000         8.927360000        15.874800000 H         7 pp       0.039424942
       63 H10          31.960800000        10.506100000        16.666600000 H         7 pp       0.039424942
       64 H11          32.181100000        10.365700000        14.924700000 H         7 pp       0.039424942
       65 C1           34.424000000         8.576170000        15.095100000 C.3       8 pp      -0.086043058
       66 C2           35.089700000         9.116670000        13.809900000 C.3       8 pp      -0.074342058
       67 H4           33.634800000         7.882520000        14.811500000 H         8 pp       0.039424942
       68 H5           35.187900000         7.995640000        15.609400000 H         8 pp       0.039424942
       69 H6           35.519600000         8.245040000        13.327200000 H         8 pp       0.043757942
       70 C8           36.271900000        10.059400000        14.107400000 C.3       8 pp      -0.086043058
       71 H9           35.929800000        11.069600000        14.328200000 H         8 pp       0.039424942
       72 H10          36.839000000         9.679650000        14.957100000 H         8 pp       0.039424942
       73 H11          36.934600000        10.099300000        13.244100000 H         8 pp       0.039424942
       74 C1           34.071300000         9.742250000        12.836100000 C.3       9 pp      -0.086043058
       75 C2           34.536700000         9.707670000        11.362000000 C.3       9 pp      -0.074342058
       76 H4           33.900300000        10.773800000        13.138900000 H         9 pp       0.039424942
       77 H5           33.120500000         9.221010000        12.914400000 H         9 pp       0.039424942
       78 H6           35.620400000         9.632710000        11.304900000 H         9 pp       0.043757942
       79 C8           34.146100000        11.045900000        10.713500000 C.3       9 pp      -0.086043058
       80 H9           33.063900000        11.173500000        10.750900000 H         9 pp       0.039424942
       81 H10          34.628400000        11.870200000        11.239700000 H         9 pp       0.039424942
       82 H11          34.475300000        11.073900000         9.674950000 H         9 pp       0.039424942
       83 C1           33.902300000         8.565070000        10.531500000 C.3      10 pp      -0.086043058
       84 C2           34.519200000         7.162240000        10.746400000 C.3      10 pp      -0.074342058
       85 H4           34.041000000         8.819080000         9.482560000 H        10 pp       0.039424942
       86 H5           32.826800000         8.528620000        10.705400000 H        10 pp       0.039424942
       87 H6           35.498700000         7.247740000        11.212300000 H        10 pp       0.043757942
       88 C8           34.707200000         6.512710000         9.363140000 C.3      10 pp      -0.086043058
       89 H9           33.774000000         6.538590000         8.804420000 H        10 pp       0.039424942
       90 H10          35.472400000         7.052010000         8.806460000 H        10 pp       0.039424942
       91 H11          35.026500000         5.478000000         9.458000000 H        10 pp       0.039424942
       92 C1           33.585600000         6.306840000        11.627800000 C.3      11 pp      -0.086043058
       93 C2           34.208700000         4.986230000        12.135500000 C.3      11 pp      -0.074342058
       94 H4           32.691800000         6.085730000        11.050700000 H        11 pp       0.039424942
       95 H5           33.280300000         6.894420000        12.487400000 H        11 pp       0.039424942
       96 H6           35.177300000         4.848570000        11.663800000 H        11 pp       0.043757942
       97 C8           33.281000000         3.831420000        11.726600000 C.3      11 pp      -0.086043058
       98 H9           32.276600000         3.995900000        12.111100000 H        11 pp       0.039424942
       99 H10          33.244000000         3.760770000        10.639600000 H        11 pp       0.039424942
      100 H11          33.652700000         2.890290000        12.118000000 H        11 pp       0.039424942
      101 C1           34.401200000         5.055530000        13.667400000 C.3      12 pp      -0.086043058
      102 C2           35.039200000         3.839230000        14.381700000 C.3      12 pp      -0.074342058
      103 H4           33.422500000         5.225650000        14.117300000 H        12 pp       0.039424942
      104 H5           35.035700000         5.913320000        13.876700000 H        12 pp       0.039424942
      105 H6           34.332300000         3.014440000        14.366600000 H        12 pp       0.043757942
      106 C8           35.231900000         4.260000000        15.849900000 C.3      12 pp      -0.086043058
      107 H9           36.112900000         4.894690000        15.946600000 H        12 pp       0.039424942
      108 H10          34.360100000         4.810610000        16.201200000 H        12 pp       0.039424942
      109 H11          35.346200000         3.381630000        16.481700000 H        12 pp       0.039424942
      110 C1           36.380000000         3.409450000        13.732500000 C.3      13 pp      -0.086043058
      111 C2           37.157200000         2.260670000        14.415700000 C.3      13 pp      -0.074342058
      112 H4           37.023500000         4.287860000        13.692300000 H        13 pp       0.039424942
      113 H5           36.192400000         3.081540000        12.712800000 H        13 pp       0.039424942
      114 H6           37.217100000         2.416230000        15.489500000 H        13 pp       0.043757942
      115 C8           38.594500000         2.296410000        13.868100000 C.3      13 pp      -0.086043058
      116 H9           38.581200000         2.272580000        12.779000000 H        13 pp       0.039424942
      117 H10          39.089200000         3.209890000        14.198300000 H        13 pp       0.039424942
      118 H11          39.167300000         1.446070000        14.233700000 H        13 pp       0.039424942
      119 C1           36.521400000         0.887606000        14.104500000 C.3      14 pp      -0.086043058
      120 C2           36.870800000        -0.192600000        15.148100000 C.3      14 pp      -0.074342058
      121 H4           36.874000000         0.564855000        13.125700000 H        14 pp       0.039424942
      122 H5           35.438100000         0.972399000        14.055200000 H        14 pp       0.039424942
      123 H6           37.890200000        -0.052300000        15.501600000 H        14 pp       0.043757942
      124 C8           36.785000000        -1.570700000        14.475200000 C.3      14 pp      -0.086043058
      125 H9           35.813200000        -1.694000000        13.996000000 H        14 pp       0.039424942
      126 H10          37.569700000        -1.657500000        13.723800000 H        14 pp       0.039424942
      127 H11          36.924800000        -2.359900000        15.212400000 H        14 pp       0.039424942
      128 C1           35.901800000        -0.125400000        16.343700000 C.3      15 pp      -0.086043058
      129 C2           36.558000000        -0.628700000        17.638200000 C.3      15 pp      -0.074342058
      130 H4           35.019000000        -0.726000000        16.127700000 H        15 pp       0.039424942
      131 H5           35.589500000         0.903942000        16.504500000 H        15 pp       0.039424942
      132 H6           36.830900000        -1.678300000        17.538500000 H        15 pp       0.043757942
      133 H7           37.451100000        -0.041900000        17.852800000 H        15 pp       0.043757942
      134 C8           35.585700000        -0.479300000        18.812400000 C.3      15 pp      -0.086043058
      135 H9           35.354100000         0.574293000        18.968800000 H        15 pp       0.039424942
      136 H10          34.666200000        -1.025800000        18.605200000 H        15 pp       0.039424942
      137 H11          36.048000000        -0.881900000        19.713600000 H        15 pp       0.039424942
      138 C1           25.245100000        10.686600000        16.376700000 C.3      16 pp      -0.086043058
      139 C2           26.497700000        10.583000000        17.263000000 C.3      16 pp      -0.074342058
      140 H3           25.492500000        11.186400000        15.440500000 H        16 pp       0.039424942
      141 H4           24.882800000         9.682960000        16.155100000 H        16 pp       0.039424942
      142 H5           24.451400000        11.234800000        16.881500000 H        16 pp       0.039424942
      143 H6           27.137700000         9.825680000        16.810200000 H        16 pp       0.043757942
      144 C8           26.122000000        10.066900000        18.658900000 C.3      16 pp      -0.086043058
      145 H9           25.430800000        10.750200000        19.150400000 H        16 pp       0.039424942
      146 H10          25.647400000         9.090460000        18.562500000 H        16 pp       0.039424942
      147 H11          27.021500000         9.961200000        19.265300000 H        16 pp       0.039424942
      148 C1           27.331500000        11.883400000        17.301400000 C.3      17 pp      -0.086043058
      149 C2           26.637200000        13.131800000        17.899200000 C.3      17 pp      -0.074342058
      150 H4           27.632000000        12.098100000        16.276600000 H        17 pp       0.039424942
      151 H5           28.245400000        11.681800000        17.857900000 H        17 pp       0.039424942
      152 H6           25.571600000        12.946900000        17.968600000 H        17 pp       0.043757942
      153 C8           26.849700000        14.299900000        16.924000000 C.3      17 pp      -0.086043058
      154 H9           27.912800000        14.515000000        16.817900000 H        17 pp       0.039424942
      155 H10          26.433000000        14.043900000        15.951300000 H        17 pp       0.039424942
      156 H11          26.335500000        15.188000000        17.280300000 H        17 pp       0.039424942
      157 C1           27.217600000        13.432600000        19.305200000 C.3      18 pp      -0.086043058
      158 C2           26.489000000        14.449700000        20.219100000 C.3      18 pp      -0.074342058
      159 H4           28.254900000        13.745200000        19.198300000 H        18 pp       0.039424942
      160 H5           27.220800000        12.497400000        19.862600000 H        18 pp       0.039424942
      161 H6           26.847900000        14.219100000        21.219800000 H        18 pp       0.043757942
      162 C8           24.966700000        14.236200000        20.259800000 C.3      18 pp      -0.086043058
      163 H9           24.503100000        14.561300000        19.330000000 H        18 pp       0.039424942
      164 H10          24.751800000        13.180200000        20.421200000 H        18 pp       0.039424942
      165 H11          24.538400000        14.806800000        21.082400000 H        18 pp       0.039424942
      166 C1           26.838500000        15.927000000        19.919800000 C.3      19 pp      -0.086043058
      167 C2           27.378900000        16.694700000        21.144100000 C.3      19 pp      -0.074342058
      168 H4           25.955100000        16.434400000        19.535600000 H        19 pp       0.039424942
      169 H5           27.613300000        15.959000000        19.157900000 H        19 pp       0.039424942
      170 H6           28.175700000        16.095700000        21.582800000 H        19 pp       0.043757942
      171 C8           26.311600000        16.900000000        22.234600000 C.3      19 pp      -0.086043058
      172 H9           25.367400000        17.226500000        21.800800000 H        19 pp       0.039424942
      173 H10          26.148600000        15.967300000        22.772800000 H        19 pp       0.039424942
      174 H11          26.654100000        17.647900000        22.945600000 H        19 pp       0.039424942
      175 C1           28.060400000        18.025400000        20.751200000 C.3      20 pp      -0.086043058
      176 C2           27.171000000        19.128400000        20.129600000 C.3      20 pp      -0.074342058
      177 H4           28.866700000        17.799600000        20.057000000 H        20 pp       0.039424942
      178 H5           28.517600000        18.417900000        21.657800000 H        20 pp       0.039424942
      179 H6           26.128500000        18.916800000        20.352800000 H        20 pp       0.043757942
      180 C8           27.290900000        19.166300000        18.595300000 C.3      20 pp      -0.086043058
      181 H9           28.321000000        19.324500000        18.282500000 H        20 pp       0.039424942
      182 H10          26.939000000        18.229000000        18.170100000 H        20 pp       0.039424942
      183 H11          26.670500000        19.972200000        18.204300000 H        20 pp       0.039424942
      184 C1           27.468200000        20.509900000        20.758900000 C.3      21 pp      -0.086043058
      185 C2           28.891600000        21.075700000        20.523500000 C.3      21 pp      -0.074342058
      186 H4           27.291800000        20.425000000        21.829900000 H        21 pp       0.039424942
      187 H5           26.733600000        21.221400000        20.382800000 H        21 pp       0.039424942
      188 H6           29.544500000        20.295500000        20.145300000 H        21 pp       0.043757942
      189 C8           29.463600000        21.538700000        21.875500000 C.3      21 pp      -0.086043058
      190 H9           28.832700000        22.312700000        22.310500000 H        21 pp       0.039424942
      191 H10          29.519400000        20.693400000        22.561700000 H        21 pp       0.039424942
      192 H11          30.468800000        21.932600000        21.747200000 H        21 pp       0.039424942
      193 C1           28.826900000        22.250800000        19.517700000 C.3      22 pp      -0.086043058
      194 C2           30.170800000        22.675900000        18.881900000 C.3      22 pp      -0.074342058
      195 H4           28.398000000        23.107400000        20.037000000 H        22 pp       0.039424942
      196 H5           28.156400000        21.988400000        18.701000000 H        22 pp       0.039424942
      197 H6           30.958600000        22.675400000        19.630000000 H        22 pp       0.043757942
      198 C8           29.996300000        24.116200000        18.368400000 C.3      22 pp      -0.086043058
      199 H9           29.131000000        24.173800000        17.707800000 H        22 pp       0.039424942
      200 H10          29.847600000        24.790200000        19.212300000 H        22 pp       0.039424942
      201 H11          30.879000000        24.444400000        17.823500000 H        22 pp       0.039424942
      202 C1           30.548000000        21.729100000        17.720700000 C.3      23 pp      -0.086043058
      203 C2           32.005700000        21.888400000        17.227200000 C.3      23 pp      -0.074342058
      204 H4           29.864500000        21.909300000        16.891700000 H        23 pp       0.039424942
      205 H5           30.402000000        20.703400000        18.041300000 H        23 pp       0.039424942
      206 H6           32.489600000        22.715400000        17.736900000 H        23 pp       0.043757942
      207 C8           31.997900000        22.211600000        15.725400000 C.3      23 pp      -0.086043058
      208 H9           31.576100000        21.376300000        15.165700000 H        23 pp       0.039424942
      209 H10          31.407100000        23.109000000        15.540500000 H        23 pp       0.039424942
      210 H11          33.015700000        22.395700000        15.381400000 H        23 pp       0.039424942
      211 C1           32.843100000        20.611100000        17.445000000 C.3      24 pp      -0.086043058
      212 C2           33.313000000        20.429300000        18.902500000 C.3      24 pp      -0.074342058
      213 H4           33.731500000        20.661100000        16.818300000 H        24 pp       0.039424942
      214 H5           32.263200000        19.750500000        17.120400000 H        24 pp       0.039424942
      215 H6           32.592500000        20.866600000        19.588300000 H        24 pp       0.043757942
      216 C8           34.665100000        21.131200000        19.100700000 C.3      24 pp      -0.086043058
      217 H9           35.448100000        20.594600000        18.564000000 H        24 pp       0.039424942
      218 H10          34.618100000        22.153300000        18.730800000 H        24 pp       0.039424942
      219 H11          34.913400000        21.154400000        20.161400000 H        24 pp       0.039424942
      220 C1           33.511700000        18.939500000        19.233700000 C.3      25 pp      -0.086043058
      221 C2           32.199800000        18.219000000        19.607300000 C.3      25 pp      -0.074342058
      222 H4           34.196200000        18.853200000        20.075800000 H        25 pp       0.039424942
      223 H5           33.979100000        18.458900000        18.375700000 H        25 pp       0.039424942
      224 H6           31.360700000        18.635900000        19.055400000 H        25 pp       0.043757942
      225 C8           31.920800000        18.395900000        21.109100000 C.3      25 pp      -0.086043058
      226 H9           32.695600000        17.915400000        21.701200000 H        25 pp       0.039424942
      227 H10          31.882800000        19.452800000        21.366400000 H        25 pp       0.039424942
      228 H11          30.965700000        17.943000000        21.362400000 H        25 pp       0.039424942
      229 C1           32.310900000        16.715600000        19.297600000 C.3      26 pp      -0.086043058
      230 C2           32.089700000        16.392900000        17.802800000 C.3      26 pp      -0.074342058
      231 H4           31.558500000        16.183700000        19.875900000 H        26 pp       0.039424942
      232 H5           33.290200000        16.372200000        19.626400000 H        26 pp       0.039424942
      233 H6           32.269500000        17.285800000        17.212200000 H        26 pp       0.043757942
      234 C8           30.620000000        15.983500000        17.604500000 C.3      26 pp      -0.086043058
      235 H9           29.969300000        16.732700000        18.052300000 H        26 pp       0.039424942
      236 H10          30.382200000        15.924900000        16.544400000 H        26 pp       0.039424942
      237 H11          30.426500000        15.016300000        18.068700000 H        26 pp       0.039424942
      238 C1           33.065500000        15.280600000        17.353900000 C.3      27 pp      -0.086043058
      239 C2           33.122200000        15.026100000        15.831900000 C.3      27 pp      -0.074342058
      240 H4           32.774700000        14.356100000        17.847700000 H        27 pp       0.039424942
      241 H5           34.074000000        15.531000000        17.681200000 H        27 pp       0.039424942
      242 H6           32.123500000        14.827400000        15.451500000 H        27 pp       0.043757942
      243 C8           33.940300000        13.750200000        15.586700000 C.3      27 pp      -0.086043058
      244 H9           34.958200000        13.874500000        15.955900000 H        27 pp       0.039424942
      245 H10          33.471700000        12.915100000        16.105100000 H        27 pp       0.039424942
      246 H11          33.964000000        13.523300000        14.520400000 H        27 pp       0.039424942
      247 C1           33.777100000        16.201400000        15.071600000 C.3      28 pp      -0.086043058
      248 C2           32.779900000        16.957900000        14.168700000 C.3      28 pp      -0.074342058
      249 H4           34.592300000        15.819100000        14.459500000 H        28 pp       0.039424942
      250 H5           34.203500000        16.897500000        15.790900000 H        28 pp       0.039424942
      251 H6           31.817200000        16.992200000        14.675800000 H        28 pp       0.043757942
      252 C8           32.559800000        16.228700000        12.831100000 C.3      28 pp      -0.086043058
      253 H9           32.158300000        15.233000000        13.015500000 H        28 pp       0.039424942
      254 H10          31.842800000        16.784400000        12.227200000 H        28 pp       0.039424942
      255 H11          33.492400000        16.133000000        12.277200000 H        28 pp       0.039424942
      256 C1           33.176900000        18.434300000        13.957100000 C.3      29 pp      -0.086043058
      257 C2           34.557600000        18.685500000        13.307500000 C.3      29 pp      -0.074342058
      258 H4           33.155900000        18.922600000        14.928100000 H        29 pp       0.039424942
      259 H5           32.398700000        18.894500000        13.351000000 H        29 pp       0.039424942
      260 H6           35.045800000        17.735000000        13.109300000 H        29 pp       0.043757942
      261 C8           35.478100000        19.452600000        14.271300000 C.3      29 pp      -0.086043058
      262 H9           36.430100000        19.653500000        13.780200000 H        29 pp       0.039424942
      263 H10          35.027800000        20.395300000        14.580300000 H        29 pp       0.039424942
      264 H11          35.664400000        18.846700000        15.156800000 H        29 pp       0.039424942
      265 C1           34.434200000        19.396300000        11.943300000 C.3      30 pp      -0.086043058
      266 C2           34.045000000        20.884900000        12.014300000 C.3      30 pp      -0.074342058
      267 H4           33.701200000        18.861600000        11.339500000 H        30 pp       0.039424942
      268 H5           35.397300000        19.325500000        11.437900000 H        30 pp       0.039424942
      269 H6           33.197100000        21.035500000        12.680700000 H        30 pp       0.043757942
      270 H7           34.891300000        21.471400000        12.370900000 H        30 pp       0.043757942
      271 C8           33.666500000        21.395600000        10.621000000 C.3      30 pp      -0.086043058
      272 H9           33.457100000        22.463800000        10.676600000 H        30 pp       0.039424942
      273 H10          34.492200000        21.227000000         9.929580000 H        30 pp       0.039424942
      274 H11          32.778000000        20.875600000        10.262800000 H        30 pp       0.039424942
      275 C1           25.007100000        18.653400000        25.612100000 C.3      31 pp      -0.086043058
      276 C2           26.012300000        19.690400000        26.142200000 C.3      31 pp      -0.074342058
      277 H3           24.259800000        18.429400000        26.371700000 H        31 pp       0.039424942
      278 H4           24.495300000        19.051900000        24.737000000 H        31 pp       0.039424942
      279 H5           25.522100000        17.734900000        25.332100000 H        31 pp       0.039424942
      280 H6           25.464700000        20.528300000        26.567800000 H        31 pp       0.043757942
      281 C8           26.824000000        20.238400000        24.961500000 C.3      31 pp      -0.086043058
      282 H9           27.379700000        19.433100000        24.485800000 H        31 pp       0.039424942
      283 H10          26.150700000        20.688300000        24.232900000 H        31 pp       0.039424942
      284 H11          27.520000000        21.001300000        25.310300000 H        31 pp       0.039424942
      285 C1           26.978100000        19.082800000        27.184700000 C.3      32 pp      -0.086043058
      286 C2           26.322900000        18.703800000        28.532100000 C.3      32 pp      -0.074342058
      287 H4           27.781400000        19.792300000        27.381600000 H        32 pp       0.039424942
      288 H5           27.420900000        18.192800000        26.740900000 H        32 pp       0.039424942
      289 H6           25.465100000        18.068100000        28.341100000 H        32 pp       0.043757942
      290 C8           25.851000000        19.956800000        29.294300000 C.3      32 pp      -0.086043058
      291 H9           26.626800000        20.722200000        29.282700000 H        32 pp       0.039424942
      292 H10          24.950200000        20.352600000        28.832500000 H        32 pp       0.039424942
      293 H11          25.616900000        19.712800000        30.329000000 H        32 pp       0.039424942
      294 C1           27.320800000        17.924700000        29.414000000 C.3      33 pp      -0.086043058
      295 C2           26.598600000        16.957700000        30.373800000 C.3      33 pp      -0.074342058
      296 H4           27.899400000        18.646100000        29.990400000 H        33 pp       0.039424942
      297 H5           28.017000000        17.353100000        28.803400000 H        33 pp       0.039424942
      298 H6           25.650400000        17.396100000        30.666900000 H        33 pp       0.043757942
      299 C8           27.452200000        16.781400000        31.637600000 C.3      33 pp      -0.086043058
      300 H9           28.467500000        16.491000000        31.365900000 H        33 pp       0.039424942
      301 H10          27.483200000        17.720200000        32.190200000 H        33 pp       0.039424942
      302 H11          27.018600000        16.014100000        32.277400000 H        33 pp       0.039424942
      303 C1           26.345100000        15.580800000        29.725600000 C.3      34 pp      -0.086043058
      304 C2           25.051300000        14.924700000        30.254200000 C.3      34 pp      -0.074342058
      305 H4           27.197100000        14.936700000        29.940700000 H        34 pp       0.039424942
      306 H5           26.270300000        15.681600000        28.644000000 H        34 pp       0.039424942
      307 H6           24.854900000        15.279800000        31.261200000 H        34 pp       0.043757942
      308 C8           25.256400000        13.404700000        30.331700000 C.3      34 pp      -0.086043058
      309 H9           25.579700000        13.017700000        29.364900000 H        34 pp       0.039424942
      310 H10          26.015100000        13.177800000        31.081100000 H        34 pp       0.039424942
      311 H11          24.328100000        12.916000000        30.623300000 H        34 pp       0.039424942
      312 C1           23.878300000        15.263000000        29.306400000 C.3      35 pp      -0.086043058
      313 C2           22.454100000        15.178000000        29.908300000 C.3      35 pp      -0.074342058
      314 H4           23.925600000        14.565200000        28.470800000 H        35 pp       0.039424942
      315 H5           24.023900000        16.253800000        28.890400000 H        35 pp       0.039424942
      316 H6           22.289000000        14.149100000        30.224000000 H        35 pp       0.043757942
      317 C8           21.444300000        15.448500000        28.783800000 C.3      35 pp      -0.086043058
      318 H9           21.616100000        16.434700000        28.359000000 H        35 pp       0.039424942
      319 H10          21.559600000        14.700400000        27.999700000 H        35 pp       0.039424942
      320 H11          20.426600000        15.391000000        29.169400000 H        35 pp       0.039424942
      321 C1           22.147300000        16.066100000        31.140900000 C.3      36 pp      -0.086043058
      322 C2           22.445300000        17.582400000        31.033900000 C.3      36 pp      -0.074342058
      323 H4           22.696200000        15.653100000        31.982100000 H        36 pp       0.039424942
      324 H5           21.094700000        15.942500000        31.388700000 H        36 pp       0.039424942
      325 H6           23.099300000        17.788200000        30.194000000 H        36 pp       0.043757942
      326 C8           23.172000000        18.017600000        32.318300000 C.3      36 pp      -0.086043058
      327 H9           22.507300000        17.923800000        33.177400000 H        36 pp       0.039424942
      328 H10          24.050800000        17.398700000        32.480200000 H        36 pp       0.039424942
      329 H11          23.511400000        19.047300000        32.228900000 H        36 pp       0.039424942
      330 C1           21.136400000        18.379400000        30.838600000 C.3      37 pp      -0.086043058
      331 C2           21.367500000        19.871800000        30.507900000 C.3      37 pp      -0.074342058
      332 H4           20.535900000        18.304700000        31.743700000 H        37 pp       0.039424942
      333 H5           20.573300000        17.924400000        30.027300000 H        37 pp       0.039424942
      334 H6           22.414400000        20.044200000        30.271300000 H        37 pp       0.043757942
      335 C8           21.008900000        20.720300000        31.736200000 C.3      37 pp      -0.086043058
      336 H9           19.946100000        20.621300000        31.945100000 H        37 pp       0.039424942
      337 H10          21.568900000        20.394300000        32.608700000 H        37 pp       0.039424942
      338 H11          21.247000000        21.766700000        31.546500000 H        37 pp       0.039424942
      339 C1           20.480100000        20.348200000        29.335100000 C.3      38 pp      -0.086043058
      340 C2           21.026100000        19.961300000        27.939900000 C.3      38 pp      -0.074342058
      341 H4           20.397400000        21.434000000        29.365500000 H        38 pp       0.039424942
      342 H5           19.481600000        19.942300000        29.490500000 H        38 pp       0.039424942
      343 H6           21.515800000        18.994800000        28.019100000 H        38 pp       0.043757942
      344 C8           22.069000000        21.011500000        27.512500000 C.3      38 pp      -0.086043058
      345 H9           21.577000000        21.917500000        27.159200000 H        38 pp       0.039424942
      346 H10          22.712700000        21.278600000        28.346400000 H        38 pp       0.039424942
      347 H11          22.695500000        20.605900000        26.721200000 H        38 pp       0.039424942
      348 C1           19.850300000        19.884600000        26.928800000 C.3      39 pp      -0.086043058
      349 C2           20.065100000        19.167400000        25.573400000 C.3      39 pp      -0.074342058
      350 H4           19.483300000        20.892100000        26.732800000 H        39 pp       0.039424942
      351 H5           19.034500000        19.338900000        27.400600000 H        39 pp       0.039424942
      352 H6           19.071900000        19.126900000        25.133000000 H        39 pp       0.043757942
      353 C8           20.504900000        17.704100000        25.741400000 C.3      39 pp      -0.086043058
      354 H9           21.535600000        17.641500000        26.087600000 H        39 pp       0.039424942
      355 H10          19.851900000        17.205900000        26.457800000 H        39 pp       0.039424942
      356 H11          20.426200000        17.190900000        24.783400000 H        39 pp       0.039424942
      357 C1           20.986300000        19.894200000        24.568900000 C.3      40 pp      -0.086043058
      358 C2           20.414100000        19.866200000        23.135800000 C.3      40 pp      -0.074342058
      359 H4           21.955400000        19.399400000        24.567400000 H        40 pp       0.039424942
      360 H5           21.139400000        20.927200000        24.868600000 H        40 pp       0.039424942
      361 H6           19.926600000        18.906200000        22.975100000 H        40 pp       0.043757942
      362 C8           21.570300000        19.968000000        22.131500000 C.3      40 pp      -0.086043058
      363 H9           22.201100000        20.824500000        22.369700000 H        40 pp       0.039424942
      364 H10          22.171600000        19.059600000        22.172900000 H        40 pp       0.039424942
      365 H11          21.173100000        20.078400000        21.122600000 H        40 pp       0.039424942
      366 C1           19.442300000        21.049300000        22.912100000 C.3      41 pp      -0.086043058
      367 C2           18.138400000        20.684300000        22.172800000 C.3      41 pp      -0.074342058
      368 H4           19.953200000        21.824700000        22.345900000 H        41 pp       0.039424942
      369 H5           19.183800000        21.462300000        23.880900000 H        41 pp       0.039424942
      370 H6           18.226700000        19.664100000        21.804800000 H        41 pp       0.043757942
      371 C8           17.918500000        21.523500000        20.905700000 C.3      41 pp      -0.086043058
      372 H9           17.911200000        22.588800000        21.120300000 H        41 pp       0.039424942
      373 H10          18.715700000        21.311400000        20.193100000 H        41 pp       0.039424942
      374 H11          16.966500000        21.243100000        20.457600000 H        41 pp       0.039424942
      375 C1           16.917300000        20.673500000        23.117800000 C.3      42 pp      -0.086043058
      376 C2           16.155900000        21.978100000        23.478000000 C.3      42 pp      -0.074342058
      377 H4           17.201500000        20.163800000        24.034500000 H        42 pp       0.039424942
      378 H5           16.205000000        20.045700000        22.598900000 H        42 pp       0.039424942
      379 H6           15.620000000        22.328400000        22.597600000 H        42 pp       0.043757942
      380 C8           17.038300000        23.136100000        23.982200000 C.3      42 pp      -0.086043058
      381 H9           16.416700000        24.012700000        24.162800000 H        42 pp       0.039424942
      382 H10          17.530300000        22.856800000        24.913600000 H        42 pp       0.039424942
      383 H11          17.790300000        23.413800000        23.249700000 H        42 pp       0.039424942
      384 C1           15.152600000        21.713400000        24.630400000 C.3      43 pp      -0.086043058
      385 C2           14.024500000        20.681400000        24.386000000 C.3      43 pp      -0.074342058
      386 H4           14.673800000        22.657100000        24.889100000 H        43 pp       0.039424942
      387 H5           15.730900000        21.395900000        25.496000000 H        43 pp       0.039424942
      388 H6           14.399500000        19.783600000        23.908600000 H        43 pp       0.043757942
      389 C8           12.939600000        21.274900000        23.472400000 C.3      43 pp      -0.086043058
      390 H9           12.171600000        20.525500000        23.283200000 H        43 pp       0.039424942
      391 H10          12.483700000        22.148000000        23.940700000 H        43 pp       0.039424942
      392 H11          13.371500000        21.565500000        22.516400000 H        43 pp       0.039424942
      393 C1           13.388000000        20.275000000        25.733600000 C.3      44 pp      -0.086043058
      394 C2           13.767000000        18.855100000        26.219200000 C.3      44 pp      -0.074342058
      395 H4           12.307300000        20.303000000        25.611700000 H        44 pp       0.039424942
      396 H5           13.646600000        21.003900000        26.501100000 H        44 pp       0.039424942
      397 H6           13.493700000        18.141300000        25.443000000 H        44 pp       0.043757942
      398 C8           12.916600000        18.566800000        27.467800000 C.3      44 pp      -0.086043058
      399 H9           13.163000000        19.280900000        28.249600000 H        44 pp       0.039424942
      400 H10          11.861900000        18.659100000        27.229600000 H        44 pp       0.039424942
      401 H11          13.080500000        17.555600000        27.830700000 H        44 pp       0.039424942
      402 C1           15.277900000        18.732200000        26.531600000 C.3      45 pp      -0.086043058
      403 C2           15.760500000        17.386800000        27.107100000 C.3      45 pp      -0.074342058
      404 H4           15.552700000        19.513000000        27.239700000 H        45 pp       0.039424942
      405 H5           15.841000000        18.890200000        25.616100000 H        45 pp       0.039424942
      406 H6           16.846300000        17.437100000        27.185900000 H        45 pp       0.043757942
      407 H7           15.361400000        17.229300000        28.105900000 H        45 pp       0.043757942
      408 C8           15.413000000        16.182900000        26.223100000 C.3      45 pp      -0.086043058
      409 H9           14.346400000        15.966500000        26.271200000 H        45 pp       0.039424942
      410 H10          15.698500000        16.389000000        25.194600000 H        45 pp       0.039424942
      411 H11          15.964900000        15.312600000        26.576400000 H        45 pp       0.039424942
      412 C1           14.248600000         3.018030000        28.289900000 C.3      46 pp      -0.086043058
      413 C2           15.381400000         2.073290000        28.721400000 C.3      46 pp      -0.074342058
      414 H3           14.670800000         3.870450000        27.757600000 H        46 pp       0.039424942
      415 H4           13.552600000         2.499930000        27.631900000 H        46 pp       0.039424942
      416 H5           13.711200000         3.384530000        29.163100000 H        46 pp       0.039424942
      417 H6           16.102100000         2.649750000        29.298300000 H        46 pp       0.043757942
      418 C8           16.095900000         1.552550000        27.465200000 C.3      46 pp      -0.086043058
      419 H9           15.412300000         0.953496000        26.863500000 H        46 pp       0.039424942
      420 H10          16.449700000         2.394540000        26.870800000 H        46 pp       0.039424942
      421 H11          16.953700000         0.943906000        27.751900000 H        46 pp       0.039424942
      422 C1           14.836300000         0.882683000        29.545900000 C.3      47 pp      -0.086043058
      423 C2           15.117700000         0.914533000        31.067200000 C.3      47 pp      -0.074342058
      424 H4           15.260200000        -0.039100000        29.151000000 H        47 pp       0.039424942
      425 H5           13.758100000         0.825713000        29.401400000 H        47 pp       0.039424942
      426 H6           14.592600000         0.065483300        31.499800000 H        47 pp       0.043757942
      427 C8           14.517200000         2.160900000        31.737800000 C.3      47 pp      -0.086043058
      428 H9           15.047400000         3.063450000        31.435800000 H        47 pp       0.039424942
      429 H10          13.466400000         2.251060000        31.463900000 H        47 pp       0.039424942
      430 H11          14.582800000         2.058230000        32.820800000 H        47 pp       0.039424942
      431 C1           16.624600000         0.795048000        31.398700000 C.3      48 pp      -0.086043058
      432 C2           17.091300000        -0.542100000        32.012500000 C.3      48 pp      -0.074342058
      433 H4           16.895700000         1.590890000        32.090600000 H        48 pp       0.039424942
      434 H5           17.206100000         0.942438000        30.491900000 H        48 pp       0.039424942
      435 H6           18.173400000        -0.456500000        32.090000000 H        48 pp       0.043757942
      436 C8           16.817300000        -1.734000000        31.078100000 C.3      48 pp      -0.086043058
      437 H9           15.749400000        -1.924900000        30.979800000 H        48 pp       0.039424942
      438 H10          17.236500000        -1.526600000        30.093700000 H        48 pp       0.039424942
      439 H11          17.295700000        -2.628200000        31.475300000 H        48 pp       0.039424942
      440 C1           16.517200000        -0.790300000        33.426100000 C.3      49 pp      -0.086043058
      441 C2           17.609000000        -0.949900000        34.509600000 C.3      49 pp      -0.074342058
      442 H4           15.906300000        -1.690700000        33.405400000 H        49 pp       0.039424942
      443 H5           15.876500000         0.044544900        33.694800000 H        49 pp       0.039424942
      444 H6           18.356900000        -0.166900000        34.406500000 H        49 pp       0.043757942
      445 C8           18.332900000        -2.300000000        34.346800000 C.3      49 pp      -0.086043058
      446 H9           17.616100000        -3.119900000        34.390800000 H        49 pp       0.039424942
      447 H10          18.862600000        -2.337500000        33.396900000 H        49 pp       0.039424942
      448 H11          19.066400000        -2.431300000        35.141300000 H        49 pp       0.039424942
      449 C1           17.025900000        -0.917300000        35.943000000 C.3      50 pp      -0.086043058
      450 C2           16.393500000         0.398501000        36.462100000 C.3      50 pp      -0.074342058
      451 H4           17.834900000        -1.172200000        36.625600000 H        50 pp       0.039424942
      452 H5           16.272000000        -1.701100000        36.016700000 H        50 pp       0.039424942
      453 H6           15.379400000         0.479155000        36.071000000 H        50 pp       0.043757942
      454 C8           17.190200000         1.651380000        36.052700000 C.3      50 pp      -0.086043058
      455 H9           18.244000000         1.524610000        36.295600000 H        50 pp       0.039424942
      456 H10          17.077200000         1.821590000        34.984600000 H        50 pp       0.039424942
      457 H11          16.816600000         2.536010000        36.562600000 H        50 pp       0.039424942
      458 C1           16.329100000         0.271794000        38.000300000 C.3      51 pp      -0.086043058
      459 C2           15.465900000         1.342000000        38.706000000 C.3      51 pp      -0.074342058
      460 H4           17.341600000         0.320829000        38.396600000 H        51 pp       0.039424942
      461 H5           15.934700000        -0.714400000        38.241700000 H        51 pp       0.039424942
      462 H6           15.006900000         1.992780000        37.963300000 H        51 pp       0.043757942
      463 C8           16.380600000         2.181280000        39.619200000 C.3      51 pp      -0.086043058
      464 H9           16.776400000         1.563000000        40.425575000 H        51 pp       0.039424942
      465 H10          17.210400000         2.591890000        39.044200000 H        51 pp       0.039424942
      466 H11          15.829300000         3.014120000        40.049245000 H        51 pp       0.039424942
      467 C1           14.339300000         0.649569000        39.502100000 C.3      52 pp      -0.086043058
      468 C2           13.306900000         1.632360000        40.099848000 C.3      52 pp      -0.074342058
      469 H4           14.774200000         0.046923700        40.299609000 H        52 pp       0.039424942
      470 H5           13.820700000        -0.018900000        38.820200000 H        52 pp       0.039424942
      471 H6           13.492100000         2.634390000        39.723100000 H        52 pp       0.043757942
      472 C8           13.443800000         1.669790000        41.630460000 C.3      52 pp      -0.086043058
      473 H9           13.147700000         0.710624000        42.056250000 H        52 pp       0.039424942
      474 H10          14.473600000         1.885900000        41.912260000 H        52 pp       0.039424942
      475 H11          12.803900000         2.453690000        42.036090000 H        52 pp       0.039424942
      476 C1           11.858900000         1.225120000        39.751500000 C.3      53 pp      -0.086043058
      477 C2           11.464800000         1.585530000        38.302200000 C.3      53 pp      -0.074342058
      478 H4           11.175000000         1.742200000        40.423857000 H        53 pp       0.039424942
      479 H5           11.744100000         0.158730000        39.927998000 H        53 pp       0.039424942
      480 H6           12.336700000         1.538980000        37.657300000 H        53 pp       0.043757942
      481 C8           10.954000000         3.036650000        38.264100000 C.3      53 pp      -0.086043058
      482 H9            9.989360000         3.109120000        38.767800000 H        53 pp       0.039424942
      483 H10          11.658800000         3.705560000        38.753400000 H        53 pp       0.039424942
      484 H11          10.842700000         3.358900000        37.228400000 H        53 pp       0.039424942
      485 C1           10.321700000         0.689557000        37.764300000 C.3      54 pp      -0.086043058
      486 C2           10.680000000        -0.623500000        37.024400000 C.3      54 pp      -0.074342058
      487 H4            9.752080000         1.280340000        37.047700000 H        54 pp       0.039424942
      488 H5            9.645330000         0.458907000        38.587200000 H        54 pp       0.039424942
      489 H6            9.744390000        -0.935900000        36.561100000 H        54 pp       0.043757942
      490 C8           11.095900000        -1.760400000        37.972600000 C.3      54 pp      -0.086043058
      491 H9           12.116600000        -1.620900000        38.319800000 H        54 pp       0.039424942
      492 H10          10.423200000        -1.796200000        38.829000000 H        54 pp       0.039424942
      493 H11          11.031400000        -2.713500000        37.449500000 H        54 pp       0.039424942
      494 C1           11.711300000        -0.403700000        35.896100000 C.3      55 pp      -0.086043058
      495 C2           11.709200000        -1.516200000        34.823100000 C.3      55 pp      -0.074342058
      496 H4           12.710600000        -0.330300000        36.322100000 H        55 pp       0.039424942
      497 H5           11.480800000         0.548423000        35.420000000 H        55 pp       0.039424942
      498 H6           10.868600000        -2.183900000        34.997000000 H        55 pp       0.043757942
      499 C8           13.015200000        -2.319300000        34.937800000 C.3      55 pp      -0.086043058
      500 H9           13.139100000        -2.687700000        35.955500000 H        55 pp       0.039424942
      501 H10          12.996100000        -3.176500000        34.267100000 H        55 pp       0.039424942
      502 H11          13.860300000        -1.683700000        34.683400000 H        55 pp       0.039424942
      503 C1           11.563800000        -0.855300000        33.433700000 C.3      56 pp      -0.086043058
      504 C2           11.570200000        -1.780700000        32.193600000 C.3      56 pp      -0.074342058
      505 H4           12.384300000        -0.145100000        33.324000000 H        56 pp       0.039424942
      506 H5           10.624400000        -0.301200000        33.420600000 H        56 pp       0.039424942
      507 H6           12.565300000        -2.204900000        32.072100000 H        56 pp       0.043757942
      508 C8           11.289500000        -0.871100000        30.985100000 C.3      56 pp      -0.086043058
      509 H9           10.219100000        -0.691400000        30.902600000 H        56 pp       0.039424942
      510 H10          11.801100000         0.083344900        31.097500000 H        56 pp       0.039424942
      511 H11          11.647800000        -1.336500000        30.070500000 H        56 pp       0.039424942
      512 C1           10.512500000        -2.908300000        32.307800000 C.3      57 pp      -0.086043058
      513 C2           10.281300000        -3.782700000        31.054200000 C.3      57 pp      -0.074342058
      514 H4            9.565010000        -2.443000000        32.578400000 H        57 pp       0.039424942
      515 H5           10.797500000        -3.584700000        33.111400000 H        57 pp       0.039424942
      516 H6           10.168300000        -3.163900000        30.169500000 H        57 pp       0.043757942
      517 C8            8.953910000        -4.534700000        31.253900000 C.3      57 pp      -0.086043058
      518 H9            8.967330000        -5.080600000        32.197600000 H        57 pp       0.039424942
      519 H10           8.127990000        -3.823800000        31.268900000 H        57 pp       0.039424942
      520 H11           8.787560000        -5.236800000        30.438300000 H        57 pp       0.039424942
      521 C1           11.416500000        -4.806800000        30.841700000 C.3      58 pp      -0.086043058
      522 C2           11.590400000        -5.179500000        29.353300000 C.3      58 pp      -0.074342058
      523 H4           11.167200000        -5.706500000        31.403100000 H        58 pp       0.039424942
      524 H5           12.358000000        -4.430700000        31.237700000 H        58 pp       0.039424942
      525 H6           10.606500000        -5.272000000        28.901100000 H        58 pp       0.043757942
      526 C8           12.274800000        -6.549900000        29.263200000 C.3      58 pp      -0.086043058
      527 H9           13.211400000        -6.534800000        29.821000000 H        58 pp       0.039424942
      528 H10          11.616500000        -7.310900000        29.680400000 H        58 pp       0.039424942
      529 H11          12.477100000        -6.803600000        28.223000000 H        58 pp       0.039424942
      530 C1           12.433400000        -4.137300000        28.584600000 C.3      59 pp      -0.086043058
      531 C2           11.698100000        -3.517700000        27.376100000 C.3      59 pp      -0.074342058
      532 H4           13.357700000        -4.595900000        28.234400000 H        59 pp       0.039424942
      533 H5           12.707100000        -3.343700000        29.274100000 H        59 pp       0.039424942
      534 H6           10.717800000        -3.169000000        27.697800000 H        59 pp       0.043757942
      535 C8           11.523400000        -4.555300000        26.248900000 C.3      59 pp      -0.086043058
      536 H9           12.496200000        -4.893300000        25.893500000 H        59 pp       0.039424942
      537 H10          10.963500000        -5.414900000        26.605500000 H        59 pp       0.039424942
      538 H11          10.968100000        -4.126100000        25.418100000 H        59 pp       0.039424942
      539 C1           12.510200000        -2.306400000        26.870000000 C.3      60 pp      -0.086043058
      540 C2           11.683800000        -1.372200000        25.974000000 C.3      60 pp      -0.074342058
      541 H4           13.383700000        -2.658900000        26.322200000 H        60 pp       0.039424942
      542 H5           12.851900000        -1.714200000        27.717600000 H        60 pp       0.039424942
      543 H6           11.374500000        -1.885100000        25.067400000 H        60 pp       0.043757942
      544 H7           10.805000000        -1.022300000        26.515500000 H        60 pp       0.043757942
      545 C8           12.521200000        -0.160900000        25.564300000 C.3      60 pp      -0.086043058
      546 H9           12.756700000         0.437119000        26.443000000 H        60 pp       0.039424942
      547 H10          13.443000000        -0.495400000        25.089700000 H        60 pp       0.039424942
      548 H11          11.950600000         0.441854000        24.858500000 H        60 pp       0.039424942
      549 C1           13.407100000         8.288630000         0.105304000 C.3      61 pp      -0.086043058
      550 C2           14.325100000         7.196060000         0.673308000 C.3      61 pp      -0.074342058
      551 H3           13.885800000         9.262250000         0.191939000 H        61 pp       0.039424942
      552 H4           13.218100000         8.094500000        -0.950100000 H        61 pp       0.039424942
      553 H5           12.457400000         8.296650000         0.640249000 H        61 pp       0.039424942
      554 H6           15.293100000         7.261230000         0.178771000 H        61 pp       0.043757942
      555 C8           13.716300000         5.826230000         0.342005000 C.3      61 pp      -0.086043058
      556 H9           12.734000000         5.732320000         0.805230000 H        61 pp       0.039424942
      557 H10          13.617300000         5.716940000        -0.737800000 H        61 pp       0.039424942
      558 H11          14.364200000         5.033790000         0.713306000 H        61 pp       0.039424942
      559 C1           14.527500000         7.284430000         2.200280000 C.3      62 pp      -0.086043058
      560 C2           15.310100000         8.525580000         2.679540000 C.3      62 pp      -0.074342058
      561 H4           15.107300000         6.408040000         2.484720000 H        62 pp       0.039424942
      562 H5           13.566300000         7.222820000         2.710810000 H        62 pp       0.039424942
      563 H6           15.990100000         8.845200000         1.891830000 H        62 pp       0.043757942
      564 C8           16.153800000         8.094980000         3.892030000 C.3      62 pp      -0.086043058
      565 H9           15.524900000         7.593040000         4.628270000 H        62 pp       0.039424942
      566 H10          16.941300000         7.414650000         3.566760000 H        62 pp       0.039424942
      567 H11          16.621600000         8.957910000         4.359170000 H        62 pp       0.039424942
      568 C1           14.366700000         9.680980000         3.085450000 C.3      63 pp      -0.086043058
      569 C2           14.850400000        11.073500000         2.613680000 C.3      63 pp      -0.074342058
      570 H4           14.249300000         9.663270000         4.167430000 H        63 pp       0.039424942
      571 H5           13.386000000         9.512870000         2.648960000 H        63 pp       0.039424942
      572 H6           15.179500000        10.986800000         1.578920000 H        63 pp       0.043757942
      573 C8           16.054200000        11.585200000         3.418720000 C.3      63 pp      -0.086043058
      574 H9           15.908900000        11.403100000         4.479970000 H        63 pp       0.039424942
      575 H10          16.952100000        11.067400000         3.085710000 H        63 pp       0.039424942
      576 H11          16.193200000        12.652600000         3.255890000 H        63 pp       0.039424942
      577 C1           13.707500000        12.111400000         2.581860000 C.3      64 pp      -0.086043058
      578 C2           12.993700000        12.383100000         3.926840000 C.3      64 pp      -0.074342058
      579 H4           12.974700000        11.767000000         1.853560000 H        64 pp       0.039424942
      580 H5           14.112800000        13.044400000         2.194340000 H        64 pp       0.039424942
      581 H6           13.417000000        11.744200000         4.693860000 H        64 pp       0.043757942
      582 C8           11.504000000        12.028300000         3.763450000 C.3      64 pp      -0.086043058
      583 H9           10.986700000        12.090700000         4.718800000 H        64 pp       0.039424942
      584 H10          11.032400000        12.710800000         3.055800000 H        64 pp       0.039424942
      585 H11          11.403100000        11.005100000         3.401350000 H        64 pp       0.039424942
      586 C1           13.205600000        13.860200000         4.338440000 C.3      65 pp      -0.086043058
      587 C2           12.478400000        14.351600000         5.615420000 C.3      65 pp      -0.074342058
      588 H4           12.851200000        14.488600000         3.521560000 H        65 pp       0.039424942
      589 H5           14.273300000        14.033200000         4.446830000 H        65 pp       0.039424942
      590 H6           11.414600000        14.349700000         5.382910000 H        65 pp       0.043757942
      591 C8           12.820400000        15.828800000         5.864310000 C.3      65 pp      -0.086043058
      592 H9           13.894500000        15.968700000         5.974110000 H        65 pp       0.039424942
      593 H10          12.473900000        16.425600000         5.020650000 H        65 pp       0.039424942
      594 H11          12.315200000        16.174800000         6.766080000 H        65 pp       0.039424942
      595 C1           12.620000000        13.495300000         6.899990000 C.3      66 pp      -0.086043058
      596 C2           13.885900000        13.634900000         7.783370000 C.3      66 pp      -0.074342058
      597 H4           12.469600000        12.453400000         6.644890000 H        66 pp       0.039424942
      598 H5           11.777900000        13.781300000         7.529940000 H        66 pp       0.039424942
      599 H6           13.936500000        14.662800000         8.139220000 H        66 pp       0.043757942
      600 C8           15.220300000        13.343600000         7.075070000 C.3      66 pp      -0.086043058
      601 H9           15.134500000        12.463300000         6.445760000 H        66 pp       0.039424942
      602 H10          15.510100000        14.195900000         6.464380000 H        66 pp       0.039424942
      603 H11          16.004700000        13.178400000         7.812820000 H        66 pp       0.039424942
      604 C1           13.749600000        12.768500000         9.056660000 C.3      67 pp      -0.086043058
      605 C2           13.718900000        11.234000000         8.837320000 C.3      67 pp      -0.074342058
      606 H4           12.844500000        13.070600000         9.576350000 H        67 pp       0.039424942
      607 H5           14.575100000        13.027700000         9.715370000 H        67 pp       0.039424942
      608 H6           13.925500000        11.015000000         7.795760000 H        67 pp       0.043757942
      609 C8           12.306800000        10.710800000         9.145000000 C.3      67 pp      -0.086043058
      610 H9           11.553400000        11.346100000         8.681830000 H        67 pp       0.039424942
      611 H10          12.195500000         9.716830000         8.725580000 H        67 pp       0.039424942
      612 H11          12.133800000        10.679200000        10.218600000 H        67 pp       0.039424942
      613 C1           14.817000000        10.581500000         9.713730000 C.3      68 pp      -0.086043058
      614 C2           15.151700000         9.076630000         9.532970000 C.3      68 pp      -0.074342058
      615 H4           14.614000000        10.797400000        10.760200000 H        68 pp       0.039424942
      616 H5           15.748600000        11.088800000         9.465920000 H        68 pp       0.039424942
      617 H6           16.126100000         8.952430000        10.000900000 H        68 pp       0.043757942
      618 C8           15.366400000         8.721360000         8.051790000 C.3      68 pp      -0.086043058
      619 H9           16.013700000         9.462860000         7.584210000 H        68 pp       0.039424942
      620 H10          15.846100000         7.747260000         7.976600000 H        68 pp       0.039424942
      621 H11          14.416400000         8.683060000         7.520250000 H        68 pp       0.039424942
      622 C1           14.220000000         8.013670000        10.169800000 C.3      69 pp      -0.086043058
      623 C2           13.813400000         8.214290000        11.650000000 C.3      69 pp      -0.074342058
      624 H4           14.738200000         7.058080000        10.100200000 H        69 pp       0.039424942
      625 H5           13.327200000         7.929710000         9.563300000 H        69 pp       0.039424942
      626 H6           13.349700000         9.187710000        11.768900000 H        69 pp       0.043757942
      627 C8           15.044700000         8.159950000        12.570300000 C.3      69 pp      -0.086043058
      628 H9           15.580800000         7.222130000        12.426400000 H        69 pp       0.039424942
      629 H10          15.710500000         8.993450000        12.354900000 H        69 pp       0.039424942
      630 H11          14.736300000         8.237810000        13.612200000 H        69 pp       0.039424942
      631 C1           12.816500000         7.113360000        12.093700000 C.3      70 pp      -0.086043058
      632 C2           11.386100000         7.632980000        12.385900000 C.3      70 pp      -0.074342058
      633 H4           13.193400000         6.653480000        13.005600000 H        70 pp       0.039424942
      634 H5           12.787400000         6.333790000        11.338800000 H        70 pp       0.039424942
      635 H6           11.473500000         8.636230000        12.799900000 H        70 pp       0.043757942
      636 C8           10.731400000         6.827940000        13.517600000 C.3      70 pp      -0.086043058
      637 H9           10.734300000         5.760930000        13.308400000 H        70 pp       0.039424942
      638 H10          11.293700000         7.004100000        14.431200000 H        70 pp       0.039424942
      639 H11           9.708770000         7.170960000        13.671000000 H        70 pp       0.039424942
      640 C1           10.509000000         7.775850000        11.119100000 C.3      71 pp      -0.086043058
      641 C2            9.638020000         6.583130000        10.641900000 C.3      71 pp      -0.074342058
      642 H4           11.169000000         8.073000000        10.317200000 H        71 pp       0.039424942
      643 H5            9.832410000         8.608600000        11.310800000 H        71 pp       0.039424942
      644 H6            8.968830000         6.314390000        11.456400000 H        71 pp       0.043757942
      645 C8           10.425800000         5.310450000        10.302000000 C.3      71 pp      -0.086043058
      646 H9           11.223700000         5.552800000         9.612590000 H        71 pp       0.039424942
      647 H10          10.854600000         4.871260000        11.197400000 H        71 pp       0.039424942
      648 H11           9.764010000         4.569970000         9.854500000 H        71 pp       0.039424942
      649 C1            8.700740000         6.998140000         9.475910000 C.3      72 pp      -0.086043058
      650 C2            9.306700000         7.575700000         8.165390000 C.3      72 pp      -0.074342058
      651 H4            8.047920000         7.763410000         9.891440000 H        72 pp       0.039424942
      652 H5            8.063380000         6.150900000         9.222620000 H        72 pp       0.039424942
      653 H6           10.070200000         8.309400000         8.395250000 H        72 pp       0.043757942
      654 C8            8.186560000         8.333610000         7.434980000 C.3      72 pp      -0.086043058
      655 H9            7.355690000         7.661140000         7.218790000 H        72 pp       0.039424942
      656 H10           7.829040000         9.151540000         8.057030000 H        72 pp       0.039424942
      657 H11           8.564730000         8.756890000         6.504190000 H        72 pp       0.039424942
      658 C1            9.863450000         6.511240000         7.190040000 C.3      73 pp      -0.086043058
      659 C2           11.349700000         6.709700000         6.806290000 C.3      73 pp      -0.074342058
      660 H4            9.276960000         6.524710000         6.275270000 H        73 pp       0.039424942
      661 H5            9.728720000         5.531020000         7.636200000 H        73 pp       0.039424942
      662 H6           11.935900000         6.855310000         7.710380000 H        73 pp       0.043757942
      663 C8           11.534000000         7.941220000         5.898470000 C.3      73 pp      -0.086043058
      664 H9           11.317300000         8.855530000         6.447380000 H        73 pp       0.039424942
      665 H10          12.564000000         7.990220000         5.547710000 H        73 pp       0.039424942
      666 H11          10.870000000         7.882860000         5.035780000 H        73 pp       0.039424942
      667 C1           11.865400000         5.463030000         6.050350000 C.3      74 pp      -0.086043058
      668 C2           13.363500000         5.170010000         6.276400000 C.3      74 pp      -0.074342058
      669 H4           11.685300000         5.615300000         4.987490000 H        74 pp       0.039424942
      670 H5           11.309100000         4.577810000         6.352820000 H        74 pp       0.039424942
      671 H6           13.913600000         6.104150000         6.379800000 H        74 pp       0.043757942
      672 C8           13.898300000         4.415120000         5.048660000 C.3      74 pp      -0.086043058
      673 H9           13.335300000         3.493230000         4.904010000 H        74 pp       0.039424942
      674 H10          13.793800000         5.034800000         4.160400000 H        74 pp       0.039424942
      675 H11          14.953300000         4.179290000         5.175170000 H        74 pp       0.039424942
      676 C1           13.530700000         4.316810000         7.550150000 C.3      75 pp      -0.086043058
      677 C2           14.975400000         4.230330000         8.059980000 C.3      75 pp      -0.074342058
      678 H4           13.162400000         3.309330000         7.364770000 H        75 pp       0.039424942
      679 H5           12.939200000         4.757000000         8.343750000 H        75 pp       0.039424942
      680 H6           15.570900000         3.602350000         7.399390000 H        75 pp       0.043757942
      681 H7           15.413300000         5.225420000         8.112910000 H        75 pp       0.043757942
      682 C8           14.983400000         3.613170000         9.462350000 C.3      75 pp      -0.086043058
      683 H9           14.548000000         4.311090000        10.177500000 H        75 pp       0.039424942
      684 H10          14.405300000         2.690800000         9.461140000 H        75 pp       0.039424942
      685 H11          16.009000000         3.392380000         9.755720000 H        75 pp       0.039424942
      686 C1            0.892007000        -0.443600000        19.671500000 C.3      76 pp      -0.086043058
      687 C2            0.872266000         0.785869000        20.585700000 C.3      76 pp      -0.074342058
      688 H3            0.526584000        -1.309900000        20.221700000 H        76 pp       0.039424942
      689 H4            0.256997000        -0.273600000        18.802000000 H        76 pp       0.039424942
      690 H5            1.911260000        -0.639900000        19.342000000 H        76 pp       0.039424942
      691 H6            1.582340000         0.619258000        21.393800000 H        76 pp       0.043757942
      692 C8           -0.536900000         0.932010000        21.181600000 C.3      76 pp      -0.086043058
      693 H9           -1.278000000         0.992663000        20.384500000 H        76 pp       0.039424942
      694 H10          -0.757500000         0.066312000        21.806000000 H        76 pp       0.039424942
      695 H11          -0.599200000         1.828500000        21.796400000 H        76 pp       0.039424942
      696 C1            1.269150000         2.033040000        19.773400000 C.3      77 pp      -0.086043058
      697 C2            1.854590000         3.156570000        20.651400000 C.3      77 pp      -0.074342058
      698 H4            0.383884000         2.396590000        19.253000000 H        77 pp       0.039424942
      699 H5            2.009270000         1.759080000        19.022300000 H        77 pp       0.039424942
      700 H6            1.382350000         3.133260000        21.631800000 H        77 pp       0.043757942
      701 C8            1.537220000         4.506380000        19.987200000 C.3      77 pp      -0.086043058
      702 H9            1.941760000         4.528460000        18.974900000 H        77 pp       0.039424942
      703 H10           0.457425000         4.650370000        19.945300000 H        77 pp       0.039424942
      704 H11           1.965680000         5.324520000        20.563200000 H        77 pp       0.039424942
      705 C1            3.377680000         2.963800000        20.803600000 C.3      78 pp      -0.086043058
      706 C2            3.978270000         3.800490000        21.954800000 C.3      78 pp      -0.074342058
      707 H4            3.861890000         3.235780000        19.866600000 H        78 pp       0.039424942
      708 H5            3.584050000         1.911810000        20.984500000 H        78 pp       0.039424942
      709 H6            3.198460000         4.362690000        22.462700000 H        78 pp       0.043757942
      710 C8            4.974500000         4.812670000        21.372600000 C.3      78 pp      -0.086043058
      711 H9            5.809370000         4.288290000        20.907600000 H        78 pp       0.039424942
      712 H10           4.484280000         5.440960000        20.629500000 H        78 pp       0.039424942
      713 H11           5.351000000         5.452380000        22.170200000 H        78 pp       0.039424942
      714 C1            4.732420000         2.927460000        22.979100000 C.3      79 pp      -0.086043058
      715 C2            3.821590000         2.059740000        23.877400000 C.3      79 pp      -0.074342058
      716 H4            5.318170000         3.577630000        23.627300000 H        79 pp       0.039424942
      717 H5            5.431480000         2.293370000        22.435700000 H        79 pp       0.039424942
      718 H6            2.979160000         1.673670000        23.309700000 H        79 pp       0.043757942
      719 C8            3.266310000         2.878260000        25.052700000 C.3      79 pp      -0.086043058
      720 H9            2.531460000         2.283560000        25.595600000 H        79 pp       0.039424942
      721 H10           4.075980000         3.148770000        25.729900000 H        79 pp       0.039424942
      722 H11           2.777390000         3.782140000        24.694800000 H        79 pp       0.039424942
      723 C1            4.648080000         0.901327000        24.468500000 C.3      80 pp      -0.086043058
      724 C2            4.694020000        -0.336700000        23.546300000 C.3      80 pp      -0.074342058
      725 H4            4.217990000         0.601309000        25.422200000 H        80 pp       0.039424942
      726 H5            5.643460000         1.297140000        24.644300000 H        80 pp       0.039424942
      727 H6            4.614910000         0.020653600        22.522800000 H        80 pp       0.043757942
      728 C8            3.457120000        -1.227800000        23.762100000 C.3      80 pp      -0.086043058
      729 H9            3.519180000        -1.769100000        24.703100000 H        80 pp       0.039424942
      730 H10           2.552600000        -0.621900000        23.767300000 H        80 pp       0.039424942
      731 H11           3.381510000        -1.944400000        22.945300000 H        80 pp       0.039424942
      732 C1            5.992250000        -1.186700000        23.583100000 C.3      81 pp      -0.086043058
      733 C2            6.937150000        -1.162200000        24.811700000 C.3      81 pp      -0.074342058
      734 H4            6.586920000        -0.849900000        22.735700000 H        81 pp       0.039424942
      735 H5            5.717180000        -2.222200000        23.388000000 H        81 pp       0.039424942
      736 H6            7.260400000        -0.146100000        25.020900000 H        81 pp       0.043757942
      737 C8            8.194270000        -1.955700000        24.417500000 C.3      81 pp      -0.086043058
      738 H9            7.919930000        -2.926600000        24.007500000 H        81 pp       0.039424942
      739 H10           8.758570000        -1.399300000        23.668900000 H        81 pp       0.039424942
      740 H11           8.828770000        -2.112900000        25.285800000 H        81 pp       0.039424942
      741 C1            6.333860000        -1.796400000        26.079900000 C.3      82 pp      -0.086043058
      742 C2            7.038520000        -1.328900000        27.375100000 C.3      82 pp      -0.074342058
      743 H4            6.400890000        -2.879500000        25.987000000 H        82 pp       0.039424942
      744 H5            5.282460000        -1.543400000        26.156100000 H        82 pp       0.039424942
      745 H6            7.968550000        -0.814300000        27.141400000 H        82 pp       0.043757942
      746 C8            7.382830000        -2.573900000        28.209000000 C.3      82 pp      -0.086043058
      747 H9            6.473980000        -3.114600000        28.473500000 H        82 pp       0.039424942
      748 H10           8.038380000        -3.222800000        27.630900000 H        82 pp       0.039424942
      749 H11           7.910790000        -2.298600000        29.117500000 H        82 pp       0.039424942
      750 C1            6.098060000        -0.368700000        28.135700000 C.3      83 pp      -0.086043058
      751 C2            6.753330000         0.417180000        29.290600000 C.3      83 pp      -0.074342058
      752 H4            5.274480000        -0.958600000        28.537600000 H        83 pp       0.039424942
      753 H5            5.681790000         0.358136000        27.439000000 H        83 pp       0.039424942
      754 H6            7.442610000        -0.222000000        29.831900000 H        83 pp       0.043757942
      755 C8            5.617470000         0.823406000        30.246300000 C.3      83 pp      -0.086043058
      756 H9            5.978890000         1.504450000        31.013100000 H        83 pp       0.039424942
      757 H10           4.816670000         1.309960000        29.688700000 H        83 pp       0.039424942
      758 H11           5.219930000        -0.064300000        30.738600000 H        83 pp       0.039424942
      759 C1            7.490740000         1.674520000        28.777700000 C.3      84 pp      -0.086043058
      760 C2            8.847610000         1.954680000        29.476900000 C.3      84 pp      -0.074342058
      761 H4            6.813530000         2.517390000        28.883100000 H        84 pp       0.039424942
      762 H5            7.699680000         1.550910000        27.716200000 H        84 pp       0.039424942
      763 H6            9.487820000         1.100420000        29.260400000 H        84 pp       0.043757942
      764 C8            8.761640000         2.067140000        31.008400000 C.3      84 pp      -0.086043058
      765 H9            8.012930000         2.801040000        31.287300000 H        84 pp       0.039424942
      766 H10           8.497720000         1.109230000        31.451800000 H        84 pp       0.039424942
      767 H11           9.729890000         2.363770000        31.409200000 H        84 pp       0.039424942
      768 C1            9.574730000         3.183820000        28.876100000 C.3      85 pp      -0.086043058
      769 C2            8.901450000         4.559250000        29.110100000 C.3      85 pp      -0.074342058
      770 H4            9.651660000         3.010960000        27.803700000 H        85 pp       0.039424942
      771 H5           10.593100000         3.215190000        29.263200000 H        85 pp       0.039424942
      772 H6            7.861570000         4.412110000        29.364400000 H        85 pp       0.043757942
      773 C8            8.940090000         5.353880000        27.796600000 C.3      85 pp      -0.086043058
      774 H9            9.970090000         5.479420000        27.463900000 H        85 pp       0.039424942
      775 H10           8.374480000         4.822750000        27.032000000 H        85 pp       0.039424942
      776 H11           8.491290000         6.335590000        27.937700000 H        85 pp       0.039424942
      777 C1            9.575180000         5.399040000        30.219400000 C.3      86 pp      -0.086043058
      778 C2            8.575340000         6.373720000        30.890100000 C.3      86 pp      -0.074342058
      779 H4           10.384200000         5.971390000        29.767100000 H        86 pp       0.039424942
      780 H5           10.022500000         4.755420000        30.973100000 H        86 pp       0.039424942
      781 H6            7.712740000         6.513770000        30.242000000 H        86 pp       0.043757942
      782 C8            9.232750000         7.751310000        31.047900000 C.3      86 pp      -0.086043058
      783 H9           10.174700000         7.664110000        31.590900000 H        86 pp       0.039424942
      784 H10           9.421570000         8.176040000        30.063900000 H        86 pp       0.039424942
      785 H11           8.562340000         8.419520000        31.588700000 H        86 pp       0.039424942
      786 C1            8.105100000         5.889940000        32.281800000 C.3      87 pp      -0.086043058
      787 C2            6.595550000         6.105630000        32.512100000 C.3      87 pp      -0.074342058
      788 H4            8.665510000         6.434550000        33.040500000 H        87 pp       0.039424942
      789 H5            8.315170000         4.833600000        32.421900000 H        87 pp       0.039424942
      790 H6            6.277620000         7.023550000        32.018100000 H        87 pp       0.043757942
      791 C8            6.349100000         6.259330000        34.020700000 C.3      87 pp      -0.086043058
      792 H9            6.738660000         5.391820000        34.553600000 H        87 pp       0.039424942
      793 H10           6.847330000         7.158210000        34.384300000 H        87 pp       0.039424942
      794 H11           5.284140000         6.355030000        34.220900000 H        87 pp       0.039424942
      795 C1            5.823640000         4.890950000        31.953200000 C.3      88 pp      -0.086043058
      796 C2            4.310000000         5.128470000        31.770800000 C.3      88 pp      -0.074342058
      797 H4            5.978830000         4.035900000        32.610400000 H        88 pp       0.039424942
      798 H5            6.245180000         4.640770000        30.987000000 H        88 pp       0.039424942
      799 H6            4.060700000         6.155170000        32.028800000 H        88 pp       0.043757942
      800 C8            3.524130000         4.198230000        32.706300000 C.3      88 pp      -0.086043058
      801 H9            3.676150000         3.159050000        32.413000000 H        88 pp       0.039424942
      802 H10           3.853320000         4.335820000        33.735800000 H        88 pp       0.039424942
      803 H11           2.461470000         4.434140000        32.649900000 H        88 pp       0.039424942
      804 C1            3.872220000         4.844630000        30.318300000 C.3      89 pp      -0.086043058
      805 C2            4.215350000         6.014850000        29.375500000 C.3      89 pp      -0.074342058
      806 H4            2.793800000         4.691830000        30.291100000 H        89 pp       0.039424942
      807 H5            4.336630000         3.922050000        29.972500000 H        89 pp       0.039424942
      808 H6            5.067050000         6.564130000        29.772100000 H        89 pp       0.043757942
      809 C8            3.004600000         6.961950000        29.321300000 C.3      89 pp      -0.086043058
      810 H9            2.223310000         6.545070000        28.685500000 H        89 pp       0.039424942
      811 H10           2.601960000         7.117000000        30.320500000 H        89 pp       0.039424942
      812 H11           3.311030000         7.927590000        28.930000000 H        89 pp       0.039424942
      813 C1            4.589240000         5.483600000        27.976000000 C.3      90 pp      -0.086043058
      814 C2            5.092760000         6.597470000        27.043700000 C.3      90 pp      -0.074342058
      815 H4            3.723590000         4.997460000        27.527300000 H        90 pp       0.039424942
      816 H5            5.390830000         4.752590000        28.078700000 H        90 pp       0.039424942
      817 H6            4.300870000         7.318510000        26.865000000 H        90 pp       0.043757942
      818 H7            5.945660000         7.099520000        27.499900000 H        90 pp       0.043757942
      819 C8            5.513750000         6.038530000        25.681700000 C.3      90 pp      -0.086043058
      820 H9            6.226520000         5.224980000        25.807400000 H        90 pp       0.039424942
      821 H10           4.634550000         5.675750000        25.151600000 H        90 pp       0.039424942
      822 H11           5.975290000         6.834820000        25.098500000 H        90 pp       0.039424942
      823 C1           12.983000000         6.886640000        17.341100000 C.3      91 pp      -0.086043058
      824 C2           11.488600000         7.103290000        17.623200000 C.3      91 pp      -0.074342058
      825 H3           13.578200000         7.258310000        18.175400000 H        91 pp       0.039424942
      826 H4           13.185600000         5.826040000        17.199700000 H        91 pp       0.039424942
      827 H5           13.269500000         7.416310000        16.432400000 H        91 pp       0.039424942
      828 H6           10.937300000         6.767920000        16.749400000 H        91 pp       0.043757942
      829 C8           11.255700000         8.606000000        17.819100000 C.3      91 pp      -0.086043058
      830 H9           10.193800000         8.832640000        17.771800000 H        91 pp       0.039424942
      831 H10          11.660600000         8.920850000        18.779500000 H        91 pp       0.039424942
      832 H11          11.750400000         9.157900000        17.023600000 H        91 pp       0.039424942
      833 C1           11.087800000         6.249350000        18.844400000 C.3      92 pp      -0.086043058
      834 C2            9.597480000         6.216980000        19.263500000 C.3      92 pp      -0.074342058
      835 H4           11.698900000         6.541270000        19.696800000 H        92 pp       0.039424942
      836 H5           11.355100000         5.223310000        18.605000000 H        92 pp       0.039424942
      837 H6            9.496080000         5.307700000        19.848600000 H        92 pp       0.043757942
      838 C8            8.633720000         6.045410000        18.077400000 C.3      92 pp      -0.086043058
      839 H9            8.960940000         5.206130000        17.463600000 H        92 pp       0.039424942
      840 H10           7.633320000         5.833200000        18.452400000 H        92 pp       0.039424942
      841 H11           8.592630000         6.945060000        17.465100000 H        92 pp       0.039424942
      842 C1            9.186590000         7.409210000        20.159200000 C.3      93 pp      -0.086043058
      843 C2            8.136160000         7.033650000        21.229000000 C.3      93 pp      -0.074342058
      844 H4            8.769880000         8.187920000        19.525500000 H        93 pp       0.039424942
      845 H5           10.060900000         7.823380000        20.657200000 H        93 pp       0.039424942
      846 H6            7.579940000         6.156110000        20.916000000 H        93 pp       0.043757942
      847 C8            7.121150000         8.181000000        21.346600000 C.3      93 pp      -0.086043058
      848 H9            7.630530000         9.097350000        21.641300000 H        93 pp       0.039424942
      849 H10           6.615250000         8.333940000        20.392900000 H        93 pp       0.039424942
      850 H11           6.368520000         7.936990000        22.095900000 H        93 pp       0.039424942
      851 C1            8.754210000         6.816060000        22.630100000 C.3      94 pp      -0.086043058
      852 C2            9.672580000         5.581660000        22.781800000 C.3      94 pp      -0.074342058
      853 H4            7.950560000         6.720260000        23.358500000 H        94 pp       0.039424942
      854 H5            9.313050000         7.717900000        22.873400000 H        94 pp       0.039424942
      855 H6           10.384500000         5.571320000        21.963900000 H        94 pp       0.043757942
      856 C8            8.849160000         4.280120000        22.754500000 C.3      94 pp      -0.086043058
      857 H9            8.096910000         4.288300000        23.543400000 H        94 pp       0.039424942
      858 H10           8.353860000         4.159300000        21.794500000 H        94 pp       0.039424942
      859 H11           9.503810000         3.424980000        22.898500000 H        94 pp       0.039424942
      860 C1           10.456600000         5.679340000        24.109600000 C.3      95 pp      -0.086043058
      861 C2           11.760000000         4.843950000        24.119700000 C.3      95 pp      -0.074342058
      862 H4            9.809370000         5.358060000        24.921900000 H        95 pp       0.039424942
      863 H5           10.709200000         6.718740000        24.293400000 H        95 pp       0.039424942
      864 H6           11.951000000         4.427330000        23.133400000 H        95 pp       0.043757942
      865 C8           11.613600000         3.665780000        25.097100000 C.3      95 pp      -0.086043058
      866 H9           11.597600000         4.032380000        26.123200000 H        95 pp       0.039424942
      867 H10          10.697900000         3.110790000        24.903300000 H        95 pp       0.039424942
      868 H11          12.456900000         2.986450000        24.974100000 H        95 pp       0.039424942
      869 C1           12.984100000         5.662330000        24.596700000 C.3      96 pp      -0.086043058
      870 C2           13.801500000         6.428310000        23.530800000 C.3      96 pp      -0.074342058
      871 H4           13.679700000         4.975940000        25.076300000 H        96 pp       0.039424942
      872 H5           12.670400000         6.363250000        25.368400000 H        96 pp       0.039424942
      873 H6           14.568700000         6.953410000        24.091600000 H        96 pp       0.043757942
      874 C8           13.015200000         7.517250000        22.787100000 C.3      96 pp      -0.086043058
      875 H9           12.247600000         7.079740000        22.154900000 H        96 pp       0.039424942
      876 H10          12.550500000         8.190540000        23.504200000 H        96 pp       0.039424942
      877 H11          13.701300000         8.091840000        22.165200000 H        96 pp       0.039424942
      878 C1           14.497600000         5.493390000        22.518800000 C.3      97 pp      -0.086043058
      879 C2           16.025400000         5.695480000        22.473400000 C.3      97 pp      -0.074342058
      880 H4           14.088100000         5.685830000        21.527800000 H        97 pp       0.039424942
      881 H5           14.293600000         4.456210000        22.768700000 H        97 pp       0.039424942
      882 H6           16.259900000         6.751290000        22.579200000 H        97 pp       0.043757942
      883 C8           16.542900000         5.244230000        21.099400000 C.3      97 pp      -0.086043058
      884 H9           16.180500000         4.242140000        20.868500000 H        97 pp       0.039424942
      885 H10          16.193900000         5.936410000        20.332800000 H        97 pp       0.039424942
      886 H11          17.631800000         5.241200000        21.096100000 H        97 pp       0.039424942
      887 C1           16.719500000         4.867500000        23.575000000 C.3      98 pp      -0.086043058
      888 C2           18.011800000         5.513430000        24.119100000 C.3      98 pp      -0.074342058
      889 H4           16.966300000         3.896120000        23.150500000 H        98 pp       0.039424942
      890 H5           16.038100000         4.690160000        24.405300000 H        98 pp       0.039424942
      891 H6           18.562600000         5.980870000        23.306800000 H        98 pp       0.043757942
      892 C8           18.867200000         4.368810000        24.686600000 C.3      98 pp      -0.086043058
      893 H9           18.271600000         3.760540000        25.367700000 H        98 pp       0.039424942
      894 H10          19.228200000         3.742540000        23.870800000 H        98 pp       0.039424942
      895 H11          19.727100000         4.759560000        25.223900000 H        98 pp       0.039424942
      896 C1           17.695100000         6.537400000        25.235200000 C.3      99 pp      -0.086043058
      897 C2           18.378600000         7.921610000        25.150800000 C.3      99 pp      -0.074342058
      898 H4           17.940000000         6.092120000        26.199200000 H        99 pp       0.039424942
      899 H5           16.625700000         6.728000000        25.249000000 H        99 pp       0.039424942
      900 H6           18.001400000         8.445570000        26.028900000 H        99 pp       0.043757942
      901 C8           17.864900000         8.762460000        23.967000000 C.3      99 pp      -0.086043058
      902 H9           18.145700000         8.334540000        23.007800000 H        99 pp       0.039424942
      903 H10          16.778200000         8.816230000        24.013800000 H        99 pp       0.039424942
      904 H11          18.254700000         9.775270000        24.040000000 H        99 pp       0.039424942
      905 C1           19.911300000         7.894810000        25.375300000 C.3     100 pp      -0.086043058
      906 C2           20.847800000         7.997670000        24.146900000 C.3     100 pp      -0.074342058
      907 H4           20.151700000         6.990860000        25.929100000 H       100 pp       0.039424942
      908 H5           20.144300000         8.724910000        26.041500000 H       100 pp       0.039424942
      909 H6           20.330600000         7.700520000        23.240900000 H       100 pp       0.043757942
      910 C8           22.016200000         7.015220000        24.347600000 C.3     100 pp      -0.086043058
      911 H9           22.544900000         7.239210000        25.274500000 H       100 pp       0.039424942
      912 H10          21.638400000         5.995160000        24.387900000 H       100 pp       0.039424942
      913 H11          22.714400000         7.072430000        23.515900000 H       100 pp       0.039424942
      914 C1           21.375400000         9.449910000        24.035800000 C.3     101 pp      -0.086043058
      915 C2           22.050300000         9.818630000        22.697200000 C.3     101 pp      -0.074342058
      916 H4           22.103900000         9.597720000        24.832600000 H       101 pp       0.039424942
      917 H5           20.562500000        10.153300000        24.204400000 H       101 pp       0.039424942
      918 H6           22.843000000         9.106350000        22.491400000 H       101 pp       0.043757942
      919 C8           22.713800000        11.196100000        22.851600000 C.3     101 pp      -0.086043058
      920 H9           21.962600000        11.951700000        23.083900000 H       101 pp       0.039424942
      921 H10          23.449500000        11.164600000        23.655000000 H       101 pp       0.039424942
      922 H11          23.226800000        11.466400000        21.928500000 H       101 pp       0.039424942
      923 C1           21.049100000         9.881700000        21.521400000 C.3     102 pp      -0.086043058
      924 C2           21.283500000         8.791580000        20.453500000 C.3     102 pp      -0.074342058
      925 H4           21.116600000        10.855000000        21.036600000 H       102 pp       0.039424942
      926 H5           20.041700000         9.790840000        21.920400000 H       102 pp       0.039424942
      927 H6           21.451700000         7.845100000        20.964000000 H       102 pp       0.043757942
      928 C8           22.535000000         9.153630000        19.628800000 C.3     102 pp      -0.086043058
      929 H9           22.801400000         8.328460000        18.972900000 H       102 pp       0.039424942
      930 H10          22.350400000        10.049300000        19.036100000 H       102 pp       0.039424942
      931 H11          23.387200000         9.340710000        20.276800000 H       102 pp       0.039424942
      932 C1           19.994200000         8.695430000        19.594400000 C.3     103 pp      -0.086043058
      933 C2           19.897400000         7.635780000        18.468400000 C.3     103 pp      -0.074342058
      934 H4           19.791900000         9.674000000        19.170100000 H       103 pp       0.039424942
      935 H5           19.171500000         8.466210000        20.271400000 H       103 pp       0.039424942
      936 H6           18.839700000         7.580060000        18.214400000 H       103 pp       0.043757942
      937 C8           20.304500000         6.249810000        18.992200000 C.3     103 pp      -0.086043058
      938 H9           21.371700000         6.219970000        19.196800000 H       103 pp       0.039424942
      939 H10          19.760300000         6.033210000        19.910400000 H       103 pp       0.039424942
      940 H11          20.065200000         5.483540000        18.258000000 H       103 pp       0.039424942
      941 C1           20.672100000         8.011290000        17.182500000 C.3     104 pp      -0.086043058
      942 C2           19.854900000         7.979450000        15.872900000 C.3     104 pp      -0.074342058
      943 H4           21.527500000         7.349110000        17.072300000 H       104 pp       0.039424942
      944 H5           21.039800000         9.027060000        17.293300000 H       104 pp       0.039424942
      945 H6           18.945000000         8.554370000        16.020700000 H       104 pp       0.043757942
      946 C8           19.480400000         6.541600000        15.469700000 C.3     104 pp      -0.086043058
      947 H9           20.379300000         5.966950000        15.248300000 H       104 pp       0.039424942
      948 H10          18.929000000         6.056010000        16.270800000 H       104 pp       0.039424942
      949 H11          18.834500000         6.551020000        14.593900000 H       104 pp       0.039424942
      950 C1           20.717100000         8.668610000        14.788400000 C.3     105 pp      -0.086043058
      951 C2           20.122800000         8.743320000        13.370400000 C.3     105 pp      -0.074342058
      952 H4           21.668700000         8.141810000        14.716300000 H       105 pp       0.039424942
      953 H5           20.922500000         9.692900000        15.099200000 H       105 pp       0.039424942
      954 H6           20.840500000         9.274280000        12.746000000 H       105 pp       0.043757942
      955 H7           19.994800000         7.746540000        12.955500000 H       105 pp       0.043757942
      956 C8           18.794200000         9.506030000        13.305900000 C.3     105 pp      -0.086043058
      957 H9           18.910700000        10.486300000        13.764900000 H       105 pp       0.039424942
      958 H10          18.509400000         9.633410000        12.261800000 H       105 pp       0.039424942
      959 H11          18.009500000         8.951550000        13.818100000 H       105 pp       0.039424942
      960 C1           -4.222800000        10.293200000         5.535020000 C.3     106 pp      -0.086043058
      961 C2           -2.707500000        10.064400000         5.613430000 C.3     106 pp      -0.074342058
      962 H3           -4.421800000        11.254800000         5.062180000 H       106 pp       0.039424942
      963 H4           -4.687400000         9.504120000         4.945070000 H       106 pp       0.039424942
      964 H5           -4.651700000        10.301100000         6.537160000 H       106 pp       0.039424942
      965 H6           -2.270200000        10.907000000         6.141940000 H       106 pp       0.043757942
      966 C8           -2.135800000        10.051500000         4.190510000 C.3     106 pp      -0.086043058
      967 H9           -2.577100000         9.234790000         3.620640000 H       106 pp       0.039424942
      968 H10          -2.364200000        10.995600000         3.696320000 H       106 pp       0.039424942
      969 H11          -1.054200000         9.929240000         4.226640000 H       106 pp       0.039424942
      970 C1           -2.403400000         8.726690000         6.324930000 C.3     107 pp      -0.086043058
      971 C2           -1.589100000         8.824310000         7.635490000 C.3     107 pp      -0.074342058
      972 H4           -1.880000000         8.066410000         5.637220000 H       107 pp       0.039424942
      973 H5           -3.348300000         8.238930000         6.561640000 H       107 pp       0.039424942
      974 H6           -1.541300000         7.820790000         8.051270000 H       107 pp       0.043757942
      975 C8           -2.318800000         9.668430000         8.692640000 C.3     107 pp      -0.086043058
      976 H9           -2.201500000        10.733000000         8.495190000 H       107 pp       0.039424942
      977 H10          -3.377400000         9.419430000         8.696950000 H       107 pp       0.039424942
      978 H11          -1.904200000         9.446810000         9.676090000 H       107 pp       0.039424942
      979 C1           -0.149300000         9.362890000         7.477770000 C.3     108 pp      -0.086043058
      980 C2            0.827242000         8.509100000         6.636370000 C.3     108 pp      -0.074342058
      981 H4            0.272369000         9.458910000         8.476310000 H       108 pp       0.039424942
      982 H5           -0.201400000        10.359500000         7.044430000 H       108 pp       0.039424942
      983 H6            0.447106000         8.421980000         5.625240000 H       108 pp       0.043757942
      984 C8            1.002620000         7.098130000         7.226510000 C.3     108 pp      -0.086043058
      985 H9            1.151450000         7.156330000         8.304710000 H       108 pp       0.039424942
      986 H10           0.119441000         6.496520000         7.017000000 H       108 pp       0.039424942
      987 H11           1.861550000         6.602680000         6.777710000 H       108 pp       0.039424942
      988 C1            2.190470000         9.232720000         6.613070000 C.3     109 pp      -0.086043058
      989 C2            3.080850000         8.931690000         5.384920000 C.3     109 pp      -0.074342058
      990 H4            2.717330000         8.952830000         7.521610000 H       109 pp       0.039424942
      991 H5            2.029620000        10.307100000         6.650050000 H       109 pp       0.039424942
      992 H6            3.028240000         7.870070000         5.159380000 H       109 pp       0.043757942
      993 C8            4.531650000         9.273210000         5.774680000 C.3     109 pp      -0.086043058
      994 H9            4.817020000         8.737680000         6.678600000 H       109 pp       0.039424942
      995 H10           5.221400000         8.971530000         4.990940000 H       109 pp       0.039424942
      996 H11           4.627760000        10.344800000         5.950040000 H       109 pp       0.039424942
      997 C1            2.600020000         9.769830000         4.170390000 C.3     110 pp      -0.086043058
      998 C2            3.397930000         9.649920000         2.851250000 C.3     110 pp      -0.074342058
      999 H4            2.619100000        10.818100000         4.465850000 H       110 pp       0.039424942
     1000 H5            1.569110000         9.508310000         3.945440000 H       110 pp       0.039424942
     1001 H6            4.447390000         9.855580000         3.038300000 H       110 pp       0.043757942
     1002 C8            2.877300000        10.749900000         1.907960000 C.3     110 pp      -0.086043058
     1003 H9            1.808490000        10.623900000         1.733410000 H       110 pp       0.039424942
     1004 H10           3.051420000        11.729900000         2.351960000 H       110 pp       0.039424942
     1005 H11           3.399680000        10.715700000         0.953924000 H       110 pp       0.039424942
     1006 C1            3.234950000         8.266860000         2.182050000 C.3     111 pp      -0.086043058
     1007 C2            4.286850000         8.001130000         1.079380000 C.3     111 pp      -0.074342058
     1008 H4            2.237960000         8.213260000         1.749410000 H       111 pp       0.039424942
     1009 H5            3.301750000         7.480720000         2.926430000 H       111 pp       0.039424942
     1010 H6            4.938780000         8.862070000         0.953145000 H       111 pp       0.043757942
     1011 C8            3.561920000         7.787130000        -0.259100000 C.3     111 pp      -0.086043058
     1012 H9            2.938510000         8.650540000        -0.491000000 H       111 pp       0.039424942
     1013 H10           4.294100000         7.668620000        -1.057700000 H       111 pp       0.039424942
     1014 H11           2.938850000         6.893740000        -0.212300000 H       111 pp       0.039424942
     1015 C1            5.144120000         6.746200000         1.357280000 C.3     112 pp      -0.086043058
     1016 C2            6.099380000         6.822280000         2.571440000 C.3     112 pp      -0.074342058
     1017 H4            5.749420000         6.541600000         0.474475000 H       112 pp       0.039424942
     1018 H5            4.461350000         5.908450000         1.494260000 H       112 pp       0.039424942
     1019 H6            5.521500000         6.998340000         3.471450000 H       112 pp       0.043757942
     1020 C8            7.138730000         7.948460000         2.425820000 C.3     112 pp      -0.086043058
     1021 H9            7.583040000         7.926840000         1.430580000 H       112 pp       0.039424942
     1022 H10           6.669890000         8.916660000         2.587000000 H       112 pp       0.039424942
     1023 H11           7.926510000         7.828200000         3.168680000 H       112 pp       0.039424942
     1024 C1            6.850430000         5.480070000         2.695310000 C.3     113 pp      -0.086043058
     1025 C2            7.284100000         5.134500000         4.140060000 C.3     113 pp      -0.074342058
     1026 H4            7.733570000         5.544010000         2.061070000 H       113 pp       0.039424942
     1027 H5            6.245610000         4.668480000         2.300530000 H       113 pp       0.039424942
     1028 H6            7.319310000         6.032250000         4.755440000 H       113 pp       0.043757942
     1029 C8            8.710520000         4.565910000         4.063670000 C.3     113 pp      -0.086043058
     1030 H9            8.731350000         3.699950000         3.401390000 H       113 pp       0.039424942
     1031 H10           9.393360000         5.327730000         3.686780000 H       113 pp       0.039424942
     1032 H11           9.050530000         4.261750000         5.052380000 H       113 pp       0.039424942
     1033 C1            6.393430000         4.071060000         4.825950000 C.3     114 pp      -0.086043058
     1034 C2            5.000500000         4.569020000         5.278900000 C.3     114 pp      -0.074342058
     1035 H4            6.913660000         3.729630000         5.719490000 H       114 pp       0.039424942
     1036 H5            6.301870000         3.219570000         4.158080000 H       114 pp       0.039424942
     1037 H6            5.024960000         5.655310000         5.277230000 H       114 pp       0.043757942
     1038 C8            4.725330000         4.193970000         6.743920000 C.3     114 pp      -0.086043058
     1039 H9            4.814670000         3.120390000         6.901340000 H       114 pp       0.039424942
     1040 H10           5.442050000         4.706070000         7.386490000 H       114 pp       0.039424942
     1041 H11           3.721640000         4.518130000         7.018770000 H       114 pp       0.039424942
     1042 C1            3.851390000         4.163430000         4.325460000 C.3     115 pp      -0.086043058
     1043 C2            3.149220000         2.791860000         4.510310000 C.3     115 pp      -0.074342058
     1044 H4            4.221390000         4.221980000         3.307700000 H       115 pp       0.039424942
     1045 H5            3.092810000         4.936470000         4.435200000 H       115 pp       0.039424942
     1046 H6            2.719250000         2.719480000         5.507880000 H       115 pp       0.043757942
     1047 C8            4.079560000         1.583940000         4.306030000 C.3     115 pp      -0.086043058
     1048 H9            4.515350000         1.614520000         3.307260000 H       115 pp       0.039424942
     1049 H10           4.871220000         1.580160000         5.051290000 H       115 pp       0.039424942
     1050 H11           3.517770000         0.657347000         4.424310000 H       115 pp       0.039424942
     1051 C1            2.015710000         2.682750000         3.467010000 C.3     116 pp      -0.086043058
     1052 C2            0.694042000         3.299910000         3.963480000 C.3     116 pp      -0.074342058
     1053 H4            1.829040000         1.635920000         3.233290000 H       116 pp       0.039424942
     1054 H5            2.332750000         3.163990000         2.543950000 H       116 pp       0.039424942
     1055 H6            0.887768000         4.047960000         4.726530000 H       116 pp       0.043757942
     1056 C8           -0.153300000         2.194430000         4.606520000 C.3     116 pp      -0.086043058
     1057 H9           -1.019900000         2.643750000         5.084290000 H       116 pp       0.039424942
     1058 H10          -0.491800000         1.485890000         3.849970000 H       116 pp       0.039424942
     1059 H11           0.428661000         1.667410000         5.362290000 H       116 pp       0.039424942
     1060 C1           -0.109300000         3.914690000         2.798670000 C.3     117 pp      -0.086043058
     1061 C2            0.340392000         5.334630000         2.390820000 C.3     117 pp      -0.074342058
     1062 H4           -1.159800000         3.957270000         3.083560000 H       117 pp       0.039424942
     1063 H5           -0.006300000         3.246390000         1.944740000 H       117 pp       0.039424942
     1064 H6            1.427990000         5.358470000         2.415450000 H       117 pp       0.043757942
     1065 C8           -0.131800000         6.392120000         3.404830000 C.3     117 pp      -0.086043058
     1066 H9           -1.210000000         6.349890000         3.549750000 H       117 pp       0.039424942
     1067 H10           0.354391000         6.227840000         4.361890000 H       117 pp       0.039424942
     1068 H11           0.149209000         7.383820000         3.059580000 H       117 pp       0.039424942
     1069 C1           -0.041100000         5.712520000         0.935731000 C.3     118 pp      -0.086043058
     1070 C2           -1.545000000         5.809890000         0.560366000 C.3     118 pp      -0.074342058
     1071 H4            0.440199000         5.004420000         0.261579000 H       118 pp       0.039424942
     1072 H5            0.418293000         6.682180000         0.757690000 H       118 pp       0.039424942
     1073 H6           -2.125200000         6.108920000         1.426570000 H       118 pp       0.043757942
     1074 C8           -2.101200000         4.460640000         0.068813900 C.3     118 pp      -0.086043058
     1075 H9           -3.156700000         4.567980000        -0.179000000 H       118 pp       0.039424942
     1076 H10          -1.557600000         4.125260000        -0.814900000 H       118 pp       0.039424942
     1077 H11          -2.027000000         3.702530000         0.840870000 H       118 pp       0.039424942
     1078 C1           -1.759900000         6.816220000        -0.601600000 C.3     119 pp      -0.086043058
     1079 C2           -2.369000000         8.186750000        -0.231900000 C.3     119 pp      -0.074342058
     1080 H4           -2.433700000         6.374820000        -1.334400000 H       119 pp       0.039424942
     1081 H5           -0.817400000         6.981100000        -1.122600000 H       119 pp       0.039424942
     1082 H6           -2.516000000         8.710340000        -1.175000000 H       119 pp       0.043757942
     1083 C8           -1.396100000         9.038820000         0.596552000 C.3     119 pp      -0.086043058
     1084 H9           -1.227300000         8.584120000         1.567340000 H       119 pp       0.039424942
     1085 H10          -0.445400000         9.126080000         0.070791800 H       119 pp       0.039424942
     1086 H11          -1.807000000        10.037000000         0.740946000 H       119 pp       0.039424942
     1087 C1           -3.742000000         8.051470000         0.464191000 C.3     120 pp      -0.086043058
     1088 C2           -4.700000000         9.210190000         0.142118000 C.3     120 pp      -0.074342058
     1089 H4           -3.597500000         8.027780000         1.543470000 H       120 pp       0.039424942
     1090 H5           -4.218800000         7.119520000         0.162352000 H       120 pp       0.039424942
     1091 H6           -5.418500000         9.298600000         0.957134000 H       120 pp       0.043757942
     1092 H7           -4.151700000        10.147600000         0.059319000 H       120 pp       0.043757942
     1093 C8           -5.480800000         8.957550000        -1.154000000 C.3     120 pp      -0.086043058
     1094 H9           -4.797400000         8.774150000        -1.982000000 H       120 pp       0.039424942
     1095 H10          -6.137100000         8.096400000        -1.027900000 H       120 pp       0.039424942
     1096 H11          -6.085900000         9.834700000        -1.381500000 H       120 pp       0.039424942
     1097 C1           25.173800000         4.446950000        14.806100000 C.3     121 pp      -0.086043058
     1098 C2           24.092800000         5.208460000        15.587600000 C.3     121 pp      -0.074342058
     1099 H3           24.720700000         3.632990000        14.240700000 H       121 pp       0.039424942
     1100 H4           25.651600000         5.132840000        14.109000000 H       121 pp       0.039424942
     1101 H5           25.931400000         4.046440000        15.477500000 H       121 pp       0.039424942
     1102 H6           23.527700000         5.785210000        14.855900000 H       121 pp       0.043757942
     1103 C8           24.724300000         6.219160000        16.555500000 C.3     121 pp      -0.086043058
     1104 H9           25.286100000         5.709700000        17.334500000 H       121 pp       0.039424942
     1105 H10          25.395800000         6.876340000        16.004400000 H       121 pp       0.039424942
     1106 H11          23.944700000         6.822480000        17.016600000 H       121 pp       0.039424942
     1107 C1           23.080000000         4.272420000        16.277600000 C.3     122 pp      -0.086043058
     1108 C2           23.640100000         3.334650000        17.376300000 C.3     122 pp      -0.074342058
     1109 H4           22.609100000         3.673620000        15.498900000 H       122 pp       0.039424942
     1110 H5           22.298900000         4.897920000        16.704400000 H       122 pp       0.039424942
     1111 H6           24.725300000         3.357870000        17.372400000 H       122 pp       0.043757942
     1112 C8           23.186600000         1.903150000        17.053400000 C.3     122 pp      -0.086043058
     1113 H9           22.100200000         1.840440000        17.091600000 H       122 pp       0.039424942
     1114 H10          23.527600000         1.621250000        16.057700000 H       122 pp       0.039424942
     1115 H11          23.615100000         1.203510000        17.766200000 H       122 pp       0.039424942
     1116 C1           23.107600000         3.805080000        18.749900000 C.3     123 pp      -0.086043058
     1117 C2           23.520000000         3.022080000        20.019200000 C.3     123 pp      -0.074342058
     1118 H4           22.021200000         3.764430000        18.691400000 H       123 pp       0.039424942
     1119 H5           23.409900000         4.841380000        18.893700000 H       123 pp       0.039424942
     1120 H6           23.135300000         2.008410000        19.946000000 H       123 pp       0.043757942
     1121 C8           22.814900000         3.709510000        21.206300000 C.3     123 pp      -0.086043058
     1122 H9           23.360500000         4.606390000        21.499900000 H       123 pp       0.039424942
     1123 H10          21.798900000         3.995740000        20.941400000 H       123 pp       0.039424942
     1124 H11          22.755000000         3.026880000        22.052900000 H       123 pp       0.039424942
     1125 C1           25.053700000         2.991790000        20.236400000 C.3     124 pp      -0.086043058
     1126 C2           25.530600000         2.276060000        21.525200000 C.3     124 pp      -0.074342058
     1127 H4           25.407800000         4.021980000        20.276400000 H       124 pp       0.039424942
     1128 H5           25.533200000         2.515570000        19.385000000 H       124 pp       0.039424942
     1129 H6           25.047100000         2.751050000        22.375300000 H       124 pp       0.043757942
     1130 C8           27.018300000         2.586850000        21.755400000 C.3     124 pp      -0.086043058
     1131 H9           27.562000000         2.604040000        20.814800000 H       124 pp       0.039424942
     1132 H10          27.099500000         3.573210000        22.212100000 H       124 pp       0.039424942
     1133 H11          27.466400000         1.855720000        22.427200000 H       124 pp       0.039424942
     1134 C1           25.164700000         0.770984000        21.643800000 C.3     125 pp      -0.086043058
     1135 C2           25.460300000        -0.188600000        20.460400000 C.3     125 pp      -0.074342058
     1136 H4           24.092600000         0.751580000        21.828300000 H       125 pp       0.039424942
     1137 H5           25.636100000         0.368839000        22.540000000 H       125 pp       0.039424942
     1138 H6           25.059300000         0.238672000        19.547800000 H       125 pp       0.043757942
     1139 C8           24.696300000        -1.503100000        20.703500000 C.3     125 pp      -0.086043058
     1140 H9           25.216600000        -2.098000000        21.450000000 H       125 pp       0.039424942
     1141 H10          23.681700000        -1.311700000        21.049000000 H       125 pp       0.039424942
     1142 H11          24.625400000        -2.066100000        19.774200000 H       125 pp       0.039424942
     1143 C1           26.979600000        -0.460000000        20.312200000 C.3     126 pp      -0.086043058
     1144 C2           27.419500000        -1.492900000        19.250800000 C.3     126 pp      -0.074342058
     1145 H4           27.358000000        -0.788000000        21.279300000 H       126 pp       0.039424942
     1146 H5           27.476300000         0.468483000        20.055000000 H       126 pp       0.039424942
     1147 H6           26.910600000        -2.439400000        19.410000000 H       126 pp       0.043757942
     1148 C8           28.916300000        -1.765900000        19.466000000 C.3     126 pp      -0.086043058
     1149 H9           29.486300000        -0.837400000        19.429600000 H       126 pp       0.039424942
     1150 H10          29.058700000        -2.229100000        20.440300000 H       126 pp       0.039424942
     1151 H11          29.289100000        -2.447900000        18.703400000 H       126 pp       0.039424942
     1152 C1           27.201200000        -0.954400000        17.818600000 C.3     127 pp      -0.086043058
     1153 C2           26.525800000        -1.956400000        16.855100000 C.3     127 pp      -0.074342058
     1154 H4           28.169800000        -0.669700000        17.415600000 H       127 pp       0.039424942
     1155 H5           26.593800000        -0.055900000        17.867500000 H       127 pp       0.039424942
     1156 H6           25.894400000        -2.621700000        17.440800000 H       127 pp       0.043757942
     1157 C8           27.565800000        -2.844600000        16.153200000 C.3     127 pp      -0.086043058
     1158 H9           28.338000000        -2.242400000        15.677300000 H       127 pp       0.039424942
     1159 H10          28.028400000        -3.507600000        16.882700000 H       127 pp       0.039424942
     1160 H11          27.076700000        -3.451900000        15.395300000 H       127 pp       0.039424942
     1161 C1           25.542600000        -1.296200000        15.859200000 C.3     128 pp      -0.086043058
     1162 C2           26.100900000        -0.491800000        14.658300000 C.3     128 pp      -0.074342058
     1163 H4           24.853500000        -0.667200000        16.420500000 H       128 pp       0.039424942
     1164 H5           24.958300000        -2.118100000        15.451000000 H       128 pp       0.039424942
     1165 H6           26.857800000        -1.078600000        14.146400000 H       128 pp       0.043757942
     1166 C8           26.750300000         0.838155000        15.077400000 C.3     128 pp      -0.086043058
     1167 H9           26.096600000         1.383780000        15.756300000 H       128 pp       0.039424942
     1168 H10          27.697700000         0.639033000        15.565700000 H       128 pp       0.039424942
     1169 H11          26.961400000         1.458130000        14.207400000 H       128 pp       0.039424942
     1170 C1           24.934500000        -0.192100000        13.684700000 C.3     129 pp      -0.086043058
     1171 C2           25.056700000        -0.838700000        12.288500000 C.3     129 pp      -0.074342058
     1172 H4           24.845700000         0.884439000        13.545200000 H       129 pp       0.039424942
     1173 H5           23.993400000        -0.521400000        14.123800000 H       129 pp       0.039424942
     1174 H6           24.180200000        -0.514400000        11.733800000 H       129 pp       0.043757942
     1175 C8           24.972700000        -2.372100000        12.339300000 C.3     129 pp      -0.086043058
     1176 H9           25.813600000        -2.797900000        12.883500000 H       129 pp       0.039424942
     1177 H10          24.044700000        -2.663700000        12.828600000 H       129 pp       0.039424942
     1178 H11          24.971600000        -2.767700000        11.324400000 H       129 pp       0.039424942
     1179 C1           26.322700000        -0.374000000        11.535800000 C.3     130 pp      -0.086043058
     1180 C2           26.051900000        -0.044300000        10.056700000 C.3     130 pp      -0.074342058
     1181 H4           27.067900000        -1.167000000        11.589700000 H       130 pp       0.039424942
     1182 H5           26.741000000         0.511670000        12.009300000 H       130 pp       0.039424942
     1183 H6           25.516700000        -0.876400000         9.602190000 H       130 pp       0.043757942
     1184 C8           27.402400000         0.117562000         9.341250000 C.3     130 pp      -0.086043058
     1185 H9           27.240800000         0.362096000         8.291800000 H       130 pp       0.039424942
     1186 H10          27.984000000         0.910904000         9.811520000 H       130 pp       0.039424942
     1187 H11          27.967200000        -0.811200000         9.399130000 H       130 pp       0.039424942
     1188 C1           25.250300000         1.267910000         9.914160000 C.3     131 pp      -0.086043058
     1189 C2           23.950000000         1.107140000         9.099770000 C.3     131 pp      -0.074342058
     1190 H4           25.875600000         2.022820000         9.438660000 H       131 pp       0.039424942
     1191 H5           24.995500000         1.638910000        10.905300000 H       131 pp       0.039424942
     1192 H6           23.415400000         0.210343000         9.410570000 H       131 pp       0.043757942
     1193 C8           24.260400000         0.961322000         7.602660000 C.3     131 pp      -0.086043058
     1194 H9           23.336600000         0.934275000         7.029720000 H       131 pp       0.039424942
     1195 H10          24.864000000         1.797510000         7.264640000 H       131 pp       0.039424942
     1196 H11          24.800400000         0.033807600         7.421230000 H       131 pp       0.039424942
     1197 C1           23.066700000         2.348290000         9.346590000 C.3     132 pp      -0.086043058
     1198 C2           22.098300000         2.128710000        10.529300000 C.3     132 pp      -0.074342058
     1199 H4           22.486800000         2.572410000         8.452490000 H       132 pp       0.039424942
     1200 H5           23.713300000         3.201800000         9.549310000 H       132 pp       0.039424942
     1201 H6           22.525400000         1.370220000        11.181600000 H       132 pp       0.043757942
     1202 C8           20.759800000         1.566350000        10.027000000 C.3     132 pp      -0.086043058
     1203 H9           20.304000000         2.231560000         9.298090000 H       132 pp       0.039424942
     1204 H10          20.930500000         0.599693000         9.556780000 H       132 pp       0.039424942
     1205 H11          20.079200000         1.431440000        10.866800000 H       132 pp       0.039424942
     1206 C1           21.945600000         3.367670000        11.438100000 C.3     133 pp      -0.086043058
     1207 C2           21.438400000         4.676920000        10.792800000 C.3     133 pp      -0.074342058
     1208 H4           22.931900000         3.553140000        11.862400000 H       133 pp       0.039424942
     1209 H5           21.288800000         3.110030000        12.268600000 H       133 pp       0.039424942
     1210 H6           21.701100000         4.712140000         9.738010000 H       133 pp       0.043757942
     1211 C8           22.159800000         5.831680000        11.511100000 C.3     133 pp      -0.086043058
     1212 H9           22.029800000         5.740970000        12.589900000 H       133 pp       0.039424942
     1213 H10          23.223900000         5.803950000        11.275800000 H       133 pp       0.039424942
     1214 H11          21.765000000         6.792850000        11.190800000 H       133 pp       0.039424942
     1215 C1           19.911400000         4.831860000        10.970600000 C.3     134 pp      -0.086043058
     1216 C2           19.260900000         5.800410000         9.962200000 C.3     134 pp      -0.074342058
     1217 H4           19.725400000         5.196150000        11.980500000 H       134 pp       0.039424942
     1218 H5           19.416900000         3.868940000        10.872800000 H       134 pp       0.039424942
     1219 H6           19.900300000         6.665190000         9.804770000 H       134 pp       0.043757942
     1220 C8           17.935800000         6.282240000        10.568100000 C.3     134 pp      -0.086043058
     1221 H9           17.346800000         5.430790000        10.908600000 H       134 pp       0.039424942
     1222 H10          18.134600000         6.940230000        11.412500000 H       134 pp       0.039424942
     1223 H11          17.366800000         6.833040000         9.825160000 H       134 pp       0.039424942
     1224 C1           18.985800000         5.123820000         8.605300000 C.3     135 pp      -0.086043058
     1225 C2           19.017100000         6.141450000         7.455950000 C.3     135 pp      -0.074342058
     1226 H4           18.015900000         4.630970000         8.635550000 H       135 pp       0.039424942
     1227 H5           19.747800000         4.377120000         8.396980000 H       135 pp       0.039424942
     1228 H6           18.478600000         7.047930000         7.725420000 H       135 pp       0.043757942
     1229 H7           20.055200000         6.390850000         7.240890000 H       135 pp       0.043757942
     1230 C8           18.373600000         5.552840000         6.196990000 C.3     135 pp      -0.086043058
     1231 H9           18.593600000         6.195570000         5.345580000 H       135 pp       0.039424942
     1232 H10          18.769100000         4.557020000         6.007280000 H       135 pp       0.039424942
     1233 H11          17.294100000         5.494130000         6.328830000 H       135 pp       0.039424942
     1234 C1           14.086600000        29.003500000        14.797300000 C.3     136 pp      -0.086043058
     1235 C2           12.640700000        28.504900000        14.663700000 C.3     136 pp      -0.074342058
     1236 H3           14.234200000        29.433900000        15.787000000 H       136 pp       0.039424942
     1237 H4           14.779300000        28.172800000        14.666600000 H       136 pp       0.039424942
     1238 H5           14.293300000        29.768300000        14.050600000 H       136 pp       0.039424942
     1239 H6           11.960400000        29.318000000        14.905200000 H       136 pp       0.043757942
     1240 C8           12.413400000        27.376700000        15.677400000 C.3     136 pp      -0.086043058
     1241 H9           13.002200000        26.503400000        15.398600000 H       136 pp       0.039424942
     1242 H10          12.712600000        27.711000000        16.669800000 H       136 pp       0.039424942
     1243 H11          11.357600000        27.107300000        15.702400000 H       136 pp       0.039424942
     1244 C1           12.357200000        27.974400000        13.246100000 C.3     137 pp      -0.086043058
     1245 C2           11.930600000        29.069400000        12.243400000 C.3     137 pp      -0.074342058
     1246 H4           11.561100000        27.240400000        13.316800000 H       137 pp       0.039424942
     1247 H5           13.252300000        27.472100000        12.880300000 H       137 pp       0.039424942
     1248 H6           12.481100000        29.978400000        12.479000000 H       137 pp       0.043757942
     1249 C8           10.436400000        29.412300000        12.362100000 C.3     137 pp      -0.086043058
     1250 H9           10.210400000        29.764600000        13.367000000 H       137 pp       0.039424942
     1251 H10          10.190100000        30.205500000        11.656700000 H       137 pp       0.039424942
     1252 H11           9.821750000        28.541000000        12.146400000 H       137 pp       0.039424942
     1253 C1           12.308500000        28.703700000        10.790400000 C.3     138 pp      -0.086043058
     1254 C2           11.690200000        27.407500000        10.213600000 C.3     138 pp      -0.074342058
     1255 H4           13.390900000        28.612600000        10.758900000 H       138 pp       0.039424942
     1256 H5           12.045900000        29.541900000        10.145600000 H       138 pp       0.039424942
     1257 H6           11.286400000        26.801400000        11.014600000 H       138 pp       0.043757942
     1258 C8           12.818600000        26.605100000         9.540860000 C.3     138 pp      -0.086043058
     1259 H9           13.270100000        27.190100000         8.739070000 H       138 pp       0.039424942
     1260 H10          13.581400000        26.353500000        10.278400000 H       138 pp       0.039424942
     1261 H11          12.437600000        25.673500000         9.129680000 H       138 pp       0.039424942
     1262 C1           10.567800000        27.759300000         9.208830000 C.3     139 pp      -0.086043058
     1263 C2            9.691820000        26.580900000         8.721570000 C.3     139 pp      -0.074342058
     1264 H4           11.037600000        28.214600000         8.337210000 H       139 pp       0.039424942
     1265 H5            9.908170000        28.501900000         9.654240000 H       139 pp       0.039424942
     1266 H6           10.320600000        25.842900000         8.231470000 H       139 pp       0.043757942
     1267 C8            8.729460000        27.118300000         7.651510000 C.3     139 pp      -0.086043058
     1268 H9            8.044440000        27.843100000         8.092500000 H       139 pp       0.039424942
     1269 H10           9.293750000        27.599500000         6.852920000 H       139 pp       0.039424942
     1270 H11           8.159120000        26.295700000         7.219280000 H       139 pp       0.039424942
     1271 C1            8.853120000        25.922900000         9.843490000 C.3     140 pp      -0.086043058
     1272 C2            9.396480000        24.542800000        10.277000000 C.3     140 pp      -0.074342058
     1273 H4            7.830330000        25.782500000         9.496020000 H       140 pp       0.039424942
     1274 H5            8.811770000        26.601100000        10.691500000 H       140 pp       0.039424942
     1275 H6           10.482100000        24.564900000        10.305000000 H       140 pp       0.043757942
     1276 C8            8.963840000        23.470200000         9.262390000 C.3     140 pp      -0.086043058
     1277 H9            7.890160000        23.296600000         9.337300000 H       140 pp       0.039424942
     1278 H10           9.201430000        23.778600000         8.246070000 H       140 pp       0.039424942
     1279 H11           9.490840000        22.539600000         9.468600000 H       140 pp       0.039424942
     1280 C1            8.847100000        24.116700000        11.655900000 C.3     141 pp      -0.086043058
     1281 C2            9.542160000        24.789500000        12.861500000 C.3     141 pp      -0.074342058
     1282 H4            8.966950000        23.040900000        11.762400000 H       141 pp       0.039424942
     1283 H5            7.780010000        24.330700000        11.671500000 H       141 pp       0.039424942
     1284 H6            9.775060000        25.821200000        12.629200000 H       141 pp       0.043757942
     1285 C8           10.855000000        24.069700000        13.207700000 C.3     141 pp      -0.086043058
     1286 H9           10.637800000        23.088300000        13.626600000 H       141 pp       0.039424942
     1287 H10          11.477500000        23.951800000        12.323100000 H       141 pp       0.039424942
     1288 H11          11.409200000        24.654700000        13.941000000 H       141 pp       0.039424942
     1289 C1            8.639990000        24.751100000        14.109700000 C.3     142 pp      -0.086043058
     1290 C2            7.579440000        25.873700000        14.111400000 C.3     142 pp      -0.074342058
     1291 H4            9.259750000        24.861500000        14.998500000 H       142 pp       0.039424942
     1292 H5            8.157590000        23.775000000        14.152400000 H       142 pp       0.039424942
     1293 H6            7.341220000        26.128500000        13.080800000 H       142 pp       0.043757942
     1294 C8            8.130960000        27.159700000        14.753800000 C.3     142 pp      -0.086043058
     1295 H9            7.383490000        27.949400000        14.682800000 H       142 pp       0.039424942
     1296 H10           8.397150000        27.007700000        15.798100000 H       142 pp       0.039424942
     1297 H11           9.021460000        27.479700000        14.220500000 H       142 pp       0.039424942
     1298 C1            6.252070000        25.401800000        14.745200000 C.3     143 pp      -0.086043058
     1299 C2            6.307720000        25.128700000        16.265600000 C.3     143 pp      -0.074342058
     1300 H4            5.938290000        24.495200000        14.229000000 H       143 pp       0.039424942
     1301 H5            5.489990000        26.152900000        14.539200000 H       143 pp       0.039424942
     1302 H6            7.343360000        25.070300000        16.586300000 H       143 pp       0.043757942
     1303 C8            5.652620000        23.770100000        16.560800000 C.3     143 pp      -0.086043058
     1304 H9            4.610640000        23.775100000        16.239900000 H       143 pp       0.039424942
     1305 H10           6.189800000        22.981400000        16.033100000 H       143 pp       0.039424942
     1306 H11           5.699690000        23.555800000        17.626900000 H       143 pp       0.039424942
     1307 C1            5.589890000        26.273100000        17.013500000 C.3     144 pp      -0.086043058
     1308 C2            5.929610000        26.362500000        18.518700000 C.3     144 pp      -0.074342058
     1309 H4            4.513730000        26.159600000        16.885700000 H       144 pp       0.039424942
     1310 H5            5.885070000        27.203000000        16.543300000 H       144 pp       0.039424942
     1311 H6            6.658890000        25.583600000        18.735300000 H       144 pp       0.043757942
     1312 C8            4.701410000        26.015100000        19.373500000 C.3     144 pp      -0.086043058
     1313 H9            3.862090000        26.664300000        19.132100000 H       144 pp       0.039424942
     1314 H10           4.406880000        24.984200000        19.182300000 H       144 pp       0.039424942
     1315 H11           4.950930000        26.110400000        20.429600000 H       144 pp       0.039424942
     1316 C1            6.644420000        27.684200000        18.914400000 C.3     145 pp      -0.086043058
     1317 C2            5.884590000        29.025700000        19.116900000 C.3     145 pp      -0.074342058
     1318 H4            7.419710000        27.868500000        18.171000000 H       145 pp       0.039424942
     1319 H5            7.172290000        27.481500000        19.843600000 H       145 pp       0.039424942
     1320 H6            6.690090000        29.742200000        19.260300000 H       145 pp       0.043757942
     1321 C8            5.048220000        29.078400000        20.408600000 C.3     145 pp      -0.086043058
     1322 H9            4.035390000        28.722600000        20.231700000 H       145 pp       0.039424942
     1323 H10           5.511640000        28.476200000        21.187900000 H       145 pp       0.039424942
     1324 H11           4.996220000        30.108400000        20.759800000 H       145 pp       0.039424942
     1325 C1            5.073800000        29.479400000        17.881100000 C.3     146 pp      -0.086043058
     1326 C2            4.376990000        30.860500000        17.952500000 C.3     146 pp      -0.074342058
     1327 H4            4.303800000        28.731200000        17.706400000 H       146 pp       0.039424942
     1328 H5            5.745600000        29.496700000        17.023800000 H       146 pp       0.039424942
     1329 H6            3.659180000        30.853300000        18.769100000 H       146 pp       0.043757942
     1330 C8            3.585310000        31.025100000        16.641400000 C.3     146 pp      -0.086043058
     1331 H9            4.264310000        31.250000000        15.818800000 H       146 pp       0.039424942
     1332 H10           3.038940000        30.111800000        16.409000000 H       146 pp       0.039424942
     1333 H11           2.855210000        31.825700000        16.738600000 H       146 pp       0.039424942
     1334 C1            5.401550000        32.009900000        18.138400000 C.3     147 pp      -0.086043058
     1335 C2            4.844330000        33.451400000        18.160900000 C.3     147 pp      -0.074342058
     1336 H4            6.132800000        31.934300000        17.334300000 H       147 pp       0.039424942
     1337 H5            5.925150000        31.873800000        19.081700000 H       147 pp       0.039424942
     1338 H6            4.156520000        33.618300000        17.337200000 H       147 pp       0.043757942
     1339 C8            6.036320000        34.402000000        17.960100000 C.3     147 pp      -0.086043058
     1340 H9            6.795060000        34.214900000        18.719300000 H       147 pp       0.039424942
     1341 H10           6.471580000        34.243900000        16.973300000 H       147 pp       0.039424942
     1342 H11           5.714600000        35.438700000        18.026900000 H       147 pp       0.039424942
     1343 C1            4.160890000        33.759200000        19.510500000 C.3     148 pp      -0.086043058
     1344 C2            3.149760000        34.920600000        19.440600000 C.3     148 pp      -0.074342058
     1345 H4            4.939670000        34.007300000        20.229400000 H       148 pp       0.039424942
     1346 H5            3.637140000        32.881600000        19.882000000 H       148 pp       0.039424942
     1347 H6            3.508440000        35.685400000        18.757500000 H       148 pp       0.043757942
     1348 C8            3.047490000        35.540300000        20.844000000 C.3     148 pp      -0.086043058
     1349 H9            2.809050000        34.769300000        21.577000000 H       148 pp       0.039424942
     1350 H10           3.998800000        36.001800000        21.108700000 H       148 pp       0.039424942
     1351 H11           2.275220000        36.306700000        20.869900000 H       148 pp       0.039424942
     1352 C1            1.769010000        34.412000000        18.975300000 C.3     149 pp      -0.086043058
     1353 C2            0.906116000        35.518600000        18.337200000 C.3     149 pp      -0.074342058
     1354 H4            1.247750000        34.003300000        19.840500000 H       149 pp       0.039424942
     1355 H5            1.888090000        33.610900000        18.248400000 H       149 pp       0.039424942
     1356 H6            1.068780000        36.455400000        18.861800000 H       149 pp       0.043757942
     1357 C8           -0.574200000        35.136100000        18.489600000 C.3     149 pp      -0.086043058
     1358 H9           -0.744900000        34.137100000        18.087400000 H       149 pp       0.039424942
     1359 H10          -0.848100000        35.148900000        19.544700000 H       149 pp       0.039424942
     1360 H11          -1.205800000        35.848100000        17.960400000 H       149 pp       0.039424942
     1361 C1            1.252350000        35.712400000        16.848300000 C.3     150 pp      -0.086043058
     1362 C2            1.013410000        37.166300000        16.410900000 C.3     150 pp      -0.074342058
     1363 H4            0.642732000        35.041100000        16.243700000 H       150 pp       0.039424942
     1364 H5            2.301590000        35.477600000        16.675900000 H       150 pp       0.039424942
     1365 H6           -0.004200000        37.473200000        16.648600000 H       150 pp       0.043757942
     1366 H7            1.716020000        37.819700000        16.927600000 H       150 pp       0.043757942
     1367 C8            1.228170000        37.314300000        14.902000000 C.3     150 pp      -0.086043058
     1368 H9            2.239550000        37.003800000        14.640200000 H       150 pp       0.039424942
     1369 H10           0.506876000        36.699400000        14.363700000 H       150 pp       0.039424942
     1370 H11           1.088580000        38.358400000        14.621600000 H       150 pp       0.039424942
     1371 C1            8.454050000        29.224700000        36.872000000 C.3     151 pp      -0.086043058
     1372 C2            9.625660000        28.486000000        36.212700000 C.3     151 pp      -0.074342058
     1373 H3            7.536790000        28.647100000        36.755700000 H       151 pp       0.039424942
     1374 H4            8.659020000        29.368300000        37.933100000 H       151 pp       0.039424942
     1375 H5            8.326480000        30.201200000        36.405200000 H       151 pp       0.039424942
     1376 H6           10.535100000        29.048400000        36.414300000 H       151 pp       0.043757942
     1377 C8            9.399760000        28.455900000        34.693500000 C.3     151 pp      -0.086043058
     1378 H9            8.432470000        28.008700000        34.465500000 H       151 pp       0.039424942
     1379 H10           9.420450000        29.473700000        34.304100000 H       151 pp       0.039424942
     1380 H11          10.185100000        27.882400000        34.205500000 H       151 pp       0.039424942
     1381 C1            9.728550000        27.064300000        36.803300000 C.3     152 pp      -0.086043058
     1382 C2           11.145300000        26.464600000        36.717100000 C.3     152 pp      -0.074342058
     1383 H4            9.032820000        26.419500000        36.270200000 H       152 pp       0.039424942
     1384 H5            9.429650000        27.083300000        37.851300000 H       152 pp       0.039424942
     1385 H6           11.586200000        26.700900000        35.751600000 H       152 pp       0.043757942
     1386 C8           11.041500000        24.936100000        36.824500000 C.3     152 pp      -0.086043058
     1387 H9           10.443700000        24.659200000        37.693300000 H       152 pp       0.039424942
     1388 H10          10.572600000        24.535700000        35.926300000 H       152 pp       0.039424942
     1389 H11          12.035600000        24.502900000        36.921100000 H       152 pp       0.039424942
     1390 C1           12.029000000        26.994900000        37.865800000 C.3     153 pp      -0.086043058
     1391 C2           13.519000000        27.099600000        37.485400000 C.3     153 pp      -0.074342058
     1392 H4           11.918800000        26.320800000        38.714300000 H       153 pp       0.039424942
     1393 H5           11.688300000        27.978700000        38.183900000 H       153 pp       0.039424942
     1394 H6           13.795500000        26.253200000        36.857800000 H       153 pp       0.043757942
     1395 C8           14.338500000        27.040300000        38.783100000 C.3     153 pp      -0.086043058
     1396 H9           14.022600000        27.832900000        39.461500000 H       153 pp       0.039424942
     1397 H10          14.189500000        26.075100000        39.266100000 H       153 pp       0.039424942
     1398 H11          15.397200000        27.155700000        38.567600000 H       153 pp       0.039424942
     1399 C1           13.773200000        28.424200000        36.734500000 C.3     154 pp      -0.086043058
     1400 C2           15.153400000        28.499100000        36.043200000 C.3     154 pp      -0.074342058
     1401 H4           13.675700000        29.252800000        37.435300000 H       154 pp       0.039424942
     1402 H5           13.000500000        28.545000000        35.980400000 H       154 pp       0.039424942
     1403 H6           15.686300000        27.554100000        36.140600000 H       154 pp       0.043757942
     1404 C8           15.999000000        29.597200000        36.707600000 C.3     154 pp      -0.086043058
     1405 H9           15.538900000        30.572300000        36.544800000 H       154 pp       0.039424942
     1406 H10          16.083000000        29.412400000        37.778000000 H       154 pp       0.039424942
     1407 H11          17.001000000        29.602000000        36.279500000 H       154 pp       0.039424942
     1408 C1           15.004300000        28.846000000        34.548900000 C.3     155 pp      -0.086043058
     1409 C2           14.599400000        27.624600000        33.695000000 C.3     155 pp      -0.074342058
     1410 H4           15.958600000        29.218800000        34.178600000 H       155 pp       0.039424942
     1411 H5           14.275000000        29.647500000        34.445900000 H       155 pp       0.039424942
     1412 H6           14.216300000        26.851000000        34.358600000 H       155 pp       0.043757942
     1413 C8           15.830300000        27.031400000        32.993300000 C.3     155 pp      -0.086043058
     1414 H9           16.250800000        27.742000000        32.283000000 H       155 pp       0.039424942
     1415 H10          16.586500000        26.778200000        33.736600000 H       155 pp       0.039424942
     1416 H11          15.544700000        26.123700000        32.463100000 H       155 pp       0.039424942
     1417 C1           13.465100000        27.920700000        32.690900000 C.3     156 pp      -0.086043058
     1418 C2           13.702600000        29.103300000        31.720400000 C.3     156 pp      -0.074342058
     1419 H4           12.563900000        28.109700000        33.271100000 H       156 pp       0.039424942
     1420 H5           13.283100000        27.013100000        32.116400000 H       156 pp       0.039424942
     1421 H6           14.631800000        29.602200000        31.976500000 H       156 pp       0.043757942
     1422 C8           12.550800000        30.110800000        31.889500000 C.3     156 pp      -0.086043058
     1423 H9           11.620000000        29.684800000        31.513800000 H       156 pp       0.039424942
     1424 H10          12.427800000        30.376100000        32.939400000 H       156 pp       0.039424942
     1425 H11          12.774200000        31.026200000        31.348200000 H       156 pp       0.039424942
     1426 C1           13.798900000        28.576800000        30.268900000 C.3     157 pp      -0.086043058
     1427 C2           13.994500000        29.634200000        29.153200000 C.3     157 pp      -0.074342058
     1428 H4           12.871200000        28.051300000        30.044900000 H       157 pp       0.039424942
     1429 H5           14.610200000        27.852500000        30.219900000 H       157 pp       0.039424942
     1430 H6           13.102400000        30.255800000        29.131200000 H       157 pp       0.043757942
     1431 C8           14.017100000        28.927000000        27.790700000 C.3     157 pp      -0.086043058
     1432 H9           14.783200000        28.155800000        27.769800000 H       157 pp       0.039424942
     1433 H10          13.048500000        28.465000000        27.608400000 H       157 pp       0.039424942
     1434 H11          14.205300000        29.651500000        27.000200000 H       157 pp       0.039424942
     1435 C1           15.191800000        30.602900000        29.317200000 C.3     158 pp      -0.086043058
     1436 C2           16.610900000        29.986000000        29.301400000 C.3     158 pp      -0.074342058
     1437 H4           15.055700000        31.145500000        30.249300000 H       158 pp       0.039424942
     1438 H5           15.129500000        31.349700000        28.526100000 H       158 pp       0.039424942
     1439 H6           16.562700000        28.913800000        29.471700000 H       158 pp       0.043757942
     1440 C8           17.406100000        30.623300000        30.456600000 C.3     158 pp      -0.086043058
     1441 H9           17.391100000        31.710400000        30.370100000 H       158 pp       0.039424942
     1442 H10          16.966500000        30.333200000        31.410400000 H       158 pp       0.039424942
     1443 H11          18.440800000        30.289000000        30.448600000 H       158 pp       0.039424942
     1444 C1           17.310600000        30.274600000        27.952100000 C.3     159 pp      -0.086043058
     1445 C2           18.506400000        29.345200000        27.651100000 C.3     159 pp      -0.074342058
     1446 H4           17.651700000        31.309200000        27.963200000 H       159 pp       0.039424942
     1447 H5           16.598800000        30.169200000        27.137000000 H       159 pp       0.039424942
     1448 H6           19.005300000        29.097700000        28.577300000 H       159 pp       0.043757942
     1449 C8           19.512300000        30.104800000        26.775000000 C.3     159 pp      -0.086043058
     1450 H9           19.030700000        30.445300000        25.859200000 H       159 pp       0.039424942
     1451 H10          19.897200000        30.967300000        27.319200000 H       159 pp       0.039424942
     1452 H11          20.351800000        29.458400000        26.527500000 H       159 pp       0.039424942
     1453 C1           18.013200000        28.062100000        26.944900000 C.3     160 pp      -0.086043058
     1454 C2           19.000900000        26.870800000        26.877100000 C.3     160 pp      -0.074342058
     1455 H4           17.756300000        28.326900000        25.920300000 H       160 pp       0.039424942
     1456 H5           17.100000000        27.728100000        27.424900000 H       160 pp       0.039424942
     1457 H6           19.831900000        27.164100000        26.237600000 H       160 pp       0.043757942
     1458 C8           18.301300000        25.711100000        26.152900000 C.3     160 pp      -0.086043058
     1459 H9           17.400100000        25.409800000        26.686300000 H       160 pp       0.039424942
     1460 H10          18.028500000        26.026500000        25.146000000 H       160 pp       0.039424942
     1461 H11          18.976500000        24.859800000        26.078700000 H       160 pp       0.039424942
     1462 C1           19.623900000        26.387100000        28.210500000 C.3     161 pp      -0.086043058
     1463 C2           18.640100000        25.966400000        29.329700000 C.3     161 pp      -0.074342058
     1464 H4           20.278100000        27.173300000        28.581100000 H       161 pp       0.039424942
     1465 H5           20.275100000        25.542600000        27.987300000 H       161 pp       0.039424942
     1466 H6           17.630100000        26.277600000        29.080800000 H       161 pp       0.043757942
     1467 C8           19.052500000        26.678800000        30.629500000 C.3     161 pp      -0.086043058
     1468 H9           20.043000000        26.345600000        30.939000000 H       161 pp       0.039424942
     1469 H10          19.068300000        27.756000000        30.487100000 H       161 pp       0.039424942
     1470 H11          18.334900000        26.469300000        31.417700000 H       161 pp       0.039424942
     1471 C1           18.657800000        24.428900000        29.500900000 C.3     162 pp      -0.086043058
     1472 C2           17.537100000        23.890700000        30.422600000 C.3     162 pp      -0.074342058
     1473 H4           19.627600000        24.119100000        29.890200000 H       162 pp       0.039424942
     1474 H5           18.542900000        23.978200000        28.517300000 H       162 pp       0.039424942
     1475 H6           16.810400000        24.683400000        30.584200000 H       162 pp       0.043757942
     1476 C8           18.162800000        23.506800000        31.774600000 C.3     162 pp      -0.086043058
     1477 H9           18.778300000        22.623100000        31.649100000 H       162 pp       0.039424942
     1478 H10          18.789200000        24.306300000        32.155400000 H       162 pp       0.039424942
     1479 H11          17.389800000        23.311400000        32.513700000 H       162 pp       0.039424942
     1480 C1           16.835700000        22.694100000        29.723800000 C.3     163 pp      -0.086043058
     1481 C2           15.609200000        22.037100000        30.406000000 C.3     163 pp      -0.074342058
     1482 H4           17.573300000        21.918000000        29.519400000 H       163 pp       0.039424942
     1483 H5           16.463900000        23.056500000        28.764800000 H       163 pp       0.039424942
     1484 H6           15.029500000        21.596300000        29.596200000 H       163 pp       0.043757942
     1485 C8           14.665700000        23.049600000        31.077100000 C.3     163 pp      -0.086043058
     1486 H9           15.102000000        23.452300000        31.988700000 H       163 pp       0.039424942
     1487 H10          14.453700000        23.863900000        30.385100000 H       163 pp       0.039424942
     1488 H11          13.727800000        22.558400000        31.332200000 H       163 pp       0.039424942
     1489 C1           15.979000000        20.902700000        31.388800000 C.3     164 pp      -0.086043058
     1490 C2           15.903900000        19.493000000        30.768300000 C.3     164 pp      -0.074342058
     1491 H4           15.290800000        20.932000000        32.230400000 H       164 pp       0.039424942
     1492 H5           16.978300000        21.066800000        31.771700000 H       164 pp       0.039424942
     1493 H6           16.192000000        19.536400000        29.718900000 H       164 pp       0.043757942
     1494 C8           14.452000000        18.998800000        30.902900000 C.3     164 pp      -0.086043058
     1495 H9           13.764500000        19.775800000        30.580500000 H       164 pp       0.039424942
     1496 H10          14.287500000        18.119500000        30.284800000 H       164 pp       0.039424942
     1497 H11          14.229100000        18.752200000        31.940700000 H       164 pp       0.039424942
     1498 C1           16.870800000        18.541100000        31.504600000 C.3     165 pp      -0.086043058
     1499 C2           17.078500000        17.198200000        30.787200000 C.3     165 pp      -0.074342058
     1500 H4           16.495700000        18.360200000        32.509000000 H       165 pp       0.039424942
     1501 H5           17.852800000        19.005300000        31.578000000 H       165 pp       0.039424942
     1502 H6           16.129800000        16.749200000        30.508000000 H       165 pp       0.043757942
     1503 H7           17.677700000        17.359800000        29.891200000 H       165 pp       0.043757942
     1504 C8           17.806900000        16.216200000        31.710400000 C.3     165 pp      -0.086043058
     1505 H9           18.707900000        16.676300000        32.111200000 H       165 pp       0.039424942
     1506 H10          17.152300000        15.931600000        32.534000000 H       165 pp       0.039424942
     1507 H11          18.077700000        15.324800000        31.145000000 H       165 pp       0.039424942
     1508 C1           30.594100000        32.236900000        30.522000000 C.3     166 pp      -0.086043058
     1509 C2           31.866400000        33.063400000        30.286500000 C.3     166 pp      -0.074342058
     1510 H3           30.652100000        31.297800000        29.972100000 H       166 pp       0.039424942
     1511 H4           30.492400000        32.011900000        31.583400000 H       166 pp       0.039424942
     1512 H5           29.719900000        32.795900000        30.188300000 H       166 pp       0.039424942
     1513 H6           32.718800000        32.469800000        30.617100000 H       166 pp       0.043757942
     1514 C8           31.786700000        34.345400000        31.130900000 C.3     166 pp      -0.086043058
     1515 H9           30.967300000        34.974000000        30.781900000 H       166 pp       0.039424942
     1516 H10          31.614900000        34.084600000        32.175000000 H       166 pp       0.039424942
     1517 H11          32.720700000        34.901400000        31.066100000 H       166 pp       0.039424942
     1518 C1           31.996500000        33.363000000        28.780500000 C.3     167 pp      -0.086043058
     1519 C2           33.365800000        33.958100000        28.389500000 C.3     167 pp      -0.074342058
     1520 H4           31.203700000        34.046400000        28.478500000 H       167 pp       0.039424942
     1521 H5           31.852400000        32.426400000        28.245300000 H       167 pp       0.039424942
     1522 H6           34.040000000        33.930700000        29.243100000 H       167 pp       0.043757942
     1523 C8           33.199200000        35.425900000        27.967800000 C.3     167 pp      -0.086043058
     1524 H9           32.630100000        35.487600000        27.041100000 H       167 pp       0.039424942
     1525 H10          32.681000000        35.984800000        28.746200000 H       167 pp       0.039424942
     1526 H11          34.180200000        35.875700000        27.814600000 H       167 pp       0.039424942
     1527 C1           33.996000000        33.177400000        27.218600000 C.3     168 pp      -0.086043058
     1528 C2           34.675700000        31.872300000        27.682100000 C.3     168 pp      -0.074342058
     1529 H4           34.749400000        33.799600000        26.736300000 H       168 pp       0.039424942
     1530 H5           33.225700000        32.964100000        26.477300000 H       168 pp       0.039424942
     1531 H6           34.169100000        31.498600000        28.568400000 H       168 pp       0.043757942
     1532 C8           36.137900000        32.182400000        28.051500000 C.3     168 pp      -0.086043058
     1533 H9           36.195400000        33.097100000        28.639600000 H       168 pp       0.039424942
     1534 H10          36.548500000        31.371700000        28.652300000 H       168 pp       0.039424942
     1535 H11          36.735900000        32.305300000        27.148200000 H       168 pp       0.039424942
     1536 C1           34.557100000        30.830300000        26.546300000 C.3     169 pp      -0.086043058
     1537 C2           35.308000000        29.496300000        26.757600000 C.3     169 pp      -0.074342058
     1538 H4           34.947100000        31.292200000        25.639400000 H       169 pp       0.039424942
     1539 H5           33.503200000        30.609500000        26.383500000 H       169 pp       0.039424942
     1540 H6           36.345500000        29.715800000        26.997300000 H       169 pp       0.043757942
     1541 C8           35.380300000        28.737400000        25.425400000 C.3     169 pp      -0.086043058
     1542 H9           34.389000000        28.592600000        25.005200000 H       169 pp       0.039424942
     1543 H10          35.982800000        29.305400000        24.716600000 H       169 pp       0.039424942
     1544 H11          35.853500000        27.771400000        25.581300000 H       169 pp       0.039424942
     1545 C1           34.777400000        28.607800000        27.908000000 C.3     170 pp      -0.086043058
     1546 C2           33.365700000        27.982000000        27.756600000 C.3     170 pp      -0.074342058
     1547 H4           34.810100000        29.180800000        28.832600000 H       170 pp       0.039424942
     1548 H5           35.502400000        27.804500000        28.024400000 H       170 pp       0.039424942
     1549 H6           33.000700000        28.084400000        26.738300000 H       170 pp       0.043757942
     1550 C8           32.385800000        28.728300000        28.677800000 C.3     170 pp      -0.086043058
     1551 H9           32.654500000        28.574700000        29.723000000 H       170 pp       0.039424942
     1552 H10          32.410500000        29.792600000        28.457800000 H       170 pp       0.039424942
     1553 H11          31.368800000        28.379600000        28.507900000 H       170 pp       0.039424942
     1554 C1           33.479100000        26.471100000        28.076700000 C.3     171 pp      -0.086043058
     1555 C2           32.164800000        25.658100000        28.040700000 C.3     171 pp      -0.074342058
     1556 H4           33.942400000        26.340100000        29.055100000 H       171 pp       0.039424942
     1557 H5           34.141400000        26.049700000        27.323100000 H       171 pp       0.039424942
     1558 H6           31.425800000        26.176200000        27.436000000 H       171 pp       0.043757942
     1559 C8           31.602000000        25.464100000        29.459500000 C.3     171 pp      -0.086043058
     1560 H9           32.250600000        24.797600000        30.028800000 H       171 pp       0.039424942
     1561 H10          31.526800000        26.412900000        29.984000000 H       171 pp       0.039424942
     1562 H11          30.604400000        25.028100000        29.399600000 H       171 pp       0.039424942
     1563 C1           32.411100000        24.244300000        27.468300000 C.3     172 pp      -0.086043058
     1564 C2           32.272900000        24.159800000        25.934500000 C.3     172 pp      -0.074342058
     1565 H4           31.689500000        23.551900000        27.900700000 H       172 pp       0.039424942
     1566 H5           33.402100000        23.910200000        27.775700000 H       172 pp       0.039424942
     1567 H6           32.594800000        25.101600000        25.495000000 H       172 pp       0.043757942
     1568 C8           30.792500000        23.919400000        25.582100000 C.3     172 pp      -0.086043058
     1569 H9           30.514800000        22.889500000        25.808000000 H       172 pp       0.039424942
     1570 H10          30.153300000        24.588800000        26.155500000 H       172 pp       0.039424942
     1571 H11          30.621800000        24.113700000        24.524100000 H       172 pp       0.039424942
     1572 C1           33.182100000        23.009300000        25.439600000 C.3     173 pp      -0.086043058
     1573 C2           33.069900000        22.617000000        23.949400000 C.3     173 pp      -0.074342058
     1574 H4           32.935000000        22.123300000        26.024600000 H       173 pp       0.039424942
     1575 H5           34.218300000        23.262600000        25.652300000 H       173 pp       0.039424942
     1576 H6           32.050100000        22.281700000        23.773400000 H       173 pp       0.043757942
     1577 C8           33.939300000        21.374400000        23.695300000 C.3     173 pp      -0.086043058
     1578 H9           34.943500000        21.517000000        24.090200000 H       173 pp       0.039424942
     1579 H10          33.489000000        20.515400000        24.192800000 H       173 pp       0.039424942
     1580 H11          33.994100000        21.167400000        22.627200000 H       173 pp       0.039424942
     1581 C1           33.334800000        23.739100000        22.915400000 C.3     174 pp      -0.086043058
     1582 C2           34.764100000        24.337400000        22.821300000 C.3     174 pp      -0.074342058
     1583 H4           32.621300000        24.540500000        23.092600000 H       174 pp       0.039424942
     1584 H5           33.087900000        23.311200000        21.944800000 H       174 pp       0.039424942
     1585 H6           35.484800000        23.593400000        23.146000000 H       174 pp       0.043757942
     1586 C8           34.954900000        25.565700000        23.724400000 C.3     174 pp      -0.086043058
     1587 H9           34.138700000        26.271100000        23.598200000 H       174 pp       0.039424942
     1588 H10          34.994100000        25.258800000        24.764300000 H       174 pp       0.039424942
     1589 H11          35.894900000        26.059100000        23.483300000 H       174 pp       0.039424942
     1590 C1           35.143600000        24.682500000        21.361300000 C.3     175 pp      -0.086043058
     1591 C2           34.228400000        25.719300000        20.666200000 C.3     175 pp      -0.074342058
     1592 H4           35.117400000        23.753400000        20.795300000 H       175 pp       0.039424942
     1593 H5           36.175600000        25.030400000        21.334300000 H       175 pp       0.039424942
     1594 H6           33.336300000        25.864100000        21.260000000 H       175 pp       0.043757942
     1595 C8           33.778400000        25.151400000        19.312200000 C.3     175 pp      -0.086043058
     1596 H9           34.642800000        24.881800000        18.704300000 H       175 pp       0.039424942
     1597 H10          33.165900000        24.268600000        19.485600000 H       175 pp       0.039424942
     1598 H11          33.180500000        25.884400000        18.772800000 H       175 pp       0.039424942
     1599 C1           34.915000000        27.085700000        20.446000000 C.3     176 pp      -0.086043058
     1600 C2           33.888900000        28.243200000        20.388400000 C.3     176 pp      -0.074342058
     1601 H4           35.461000000        27.040900000        19.504300000 H       176 pp       0.039424942
     1602 H5           35.640700000        27.284400000        21.232600000 H       176 pp       0.039424942
     1603 H6           32.905700000        27.849600000        20.141500000 H       176 pp       0.043757942
     1604 C8           34.277400000        29.215300000        19.265300000 C.3     176 pp      -0.086043058
     1605 H9           35.303500000        29.559500000        19.399900000 H       176 pp       0.039424942
     1606 H10          34.190100000        28.713100000        18.301500000 H       176 pp       0.039424942
     1607 H11          33.604600000        30.073100000        19.272100000 H       176 pp       0.039424942
     1608 C1           33.812300000        29.020500000        21.721300000 C.3     177 pp      -0.086043058
     1609 C2           32.373300000        29.430100000        22.100000000 C.3     177 pp      -0.074342058
     1610 H4           34.431200000        29.911900000        21.630000000 H       177 pp       0.039424942
     1611 H5           34.218000000        28.427900000        22.535600000 H       177 pp       0.039424942
     1612 H6           31.830500000        29.704200000        21.199300000 H       177 pp       0.043757942
     1613 C8           32.469100000        30.674100000        22.995000000 C.3     177 pp      -0.086043058
     1614 H9           32.911100000        31.494900000        22.433000000 H       177 pp       0.039424942
     1615 H10          31.482400000        30.980300000        23.329000000 H       177 pp       0.039424942
     1616 H11          33.092100000        30.466000000        23.861600000 H       177 pp       0.039424942
     1617 C1           31.697800000        28.257500000        22.854400000 C.3     178 pp      -0.086043058
     1618 C2           30.177000000        28.028600000        22.693900000 C.3     178 pp      -0.074342058
     1619 H4           31.944500000        28.336100000        23.910400000 H       178 pp       0.039424942
     1620 H5           32.144600000        27.334900000        22.506200000 H       178 pp       0.039424942
     1621 H6           29.981900000        27.034800000        23.092700000 H       178 pp       0.043757942
     1622 C8           29.739700000        27.946100000        21.222400000 C.3     178 pp      -0.086043058
     1623 H9           29.662800000        28.939400000        20.781400000 H       178 pp       0.039424942
     1624 H10          30.452600000        27.347700000        20.656100000 H       178 pp       0.039424942
     1625 H11          28.763100000        27.464800000        21.167000000 H       178 pp       0.039424942
     1626 C1           29.258500000        29.021500000        23.433600000 C.3     179 pp      -0.086043058
     1627 C2           29.426300000        29.133800000        24.966100000 C.3     179 pp      -0.074342058
     1628 H4           28.235700000        28.703300000        23.242300000 H       179 pp       0.039424942
     1629 H5           29.391700000        30.007200000        22.993000000 H       179 pp       0.039424942
     1630 H6           30.361100000        29.642100000        25.194500000 H       179 pp       0.043757942
     1631 C8           29.417000000        27.759600000        25.657300000 C.3     179 pp      -0.086043058
     1632 H9           28.593200000        27.155900000        25.278700000 H       179 pp       0.039424942
     1633 H10          30.356200000        27.243700000        25.468900000 H       179 pp       0.039424942
     1634 H11          29.303300000        27.877200000        26.733600000 H       179 pp       0.039424942
     1635 C1           28.248000000        29.967600000        25.504400000 C.3     180 pp      -0.086043058
     1636 C2           28.575700000        30.742300000        26.790800000 C.3     180 pp      -0.074342058
     1637 H4           27.411900000        29.299400000        25.708100000 H       180 pp       0.039424942
     1638 H5           27.931200000        30.683500000        24.749500000 H       180 pp       0.039424942
     1639 H6           27.647600000        30.902400000        27.339200000 H       180 pp       0.043757942
     1640 H7           29.261500000        30.177700000        27.420800000 H       180 pp       0.043757942
     1641 C8           29.184800000        32.113500000        26.480000000 C.3     180 pp      -0.086043058
     1642 H9           29.343700000        32.646200000        27.415500000 H       180 pp       0.039424942
     1643 H10          30.138400000        31.992200000        25.967900000 H       180 pp       0.039424942
     1644 H11          28.504300000        32.695900000        25.858800000 H       180 pp       0.039424942
     1645 C1            2.050860000        17.691300000        24.280900000 C.3     181 pp      -0.086043058
     1646 C2            3.417260000        18.331000000        23.992000000 C.3     181 pp      -0.074342058
     1647 H3            2.127930000        16.606900000        24.211600000 H       181 pp       0.039424942
     1648 H4            1.731520000        17.957500000        25.288600000 H       181 pp       0.039424942
     1649 H5            1.307060000        18.045000000        23.566600000 H       181 pp       0.039424942
     1650 H6            4.100250000        18.059900000        24.794700000 H       181 pp       0.043757942
     1651 C8            3.281240000        19.858800000        23.979200000 C.3     181 pp      -0.086043058
     1652 H9            2.621730000        20.169700000        23.168700000 H       181 pp       0.039424942
     1653 H10           2.870370000        20.194400000        24.928900000 H       181 pp       0.039424942
     1654 H11           4.261450000        20.317200000        23.846500000 H       181 pp       0.039424942
     1655 C1            3.967300000        17.851900000        22.635600000 C.3     182 pp      -0.086043058
     1656 C2            4.844990000        16.591400000        22.767300000 C.3     182 pp      -0.074342058
     1657 H4            4.566880000        18.642400000        22.185400000 H       182 pp       0.039424942
     1658 H5            3.123570000        17.653200000        21.975900000 H       182 pp       0.039424942
     1659 H6            4.450900000        15.947100000        23.549300000 H       182 pp       0.043757942
     1660 C8            6.282970000        16.981600000        23.140500000 C.3     182 pp      -0.086043058
     1661 H9            6.756190000        17.505000000        22.309100000 H       182 pp       0.039424942
     1662 H10           6.290410000        17.626200000        24.017600000 H       182 pp       0.039424942
     1663 H11           6.852170000        16.081000000        23.367700000 H       182 pp       0.039424942
     1664 C1            4.897360000        15.842400000        21.422500000 C.3     183 pp      -0.086043058
     1665 C2            3.749780000        14.827200000        21.238400000 C.3     183 pp      -0.074342058
     1666 H4            5.844830000        15.312600000        21.341000000 H       183 pp       0.039424942
     1667 H5            4.861690000        16.596600000        20.637700000 H       183 pp       0.039424942
     1668 H6            2.830890000        15.266500000        21.622900000 H       183 pp       0.043757942
     1669 C8            4.041410000        13.535800000        22.021300000 C.3     183 pp      -0.086043058
     1670 H9            5.027680000        13.144800000        21.771000000 H       183 pp       0.039424942
     1671 H10           3.996910000        13.730500000        23.089500000 H       183 pp       0.039424942
     1672 H11           3.295420000        12.781400000        21.778800000 H       183 pp       0.039424942
     1673 C1            3.564930000        14.455300000        19.750300000 C.3     184 pp      -0.086043058
     1674 C2            2.089850000        14.146800000        19.424800000 C.3     184 pp      -0.074342058
     1675 H4            4.171770000        13.576600000        19.538000000 H       184 pp       0.039424942
     1676 H5            3.908720000        15.259200000        19.105200000 H       184 pp       0.039424942
     1677 H6            1.640490000        13.706000000        20.313400000 H       184 pp       0.043757942
     1678 C8            1.978600000        13.054000000        18.349500000 C.3     184 pp      -0.086043058
     1679 H9            2.500740000        13.341800000        17.439000000 H       184 pp       0.039424942
     1680 H10           2.420500000        12.132600000        18.729300000 H       184 pp       0.039424942
     1681 H11           0.928812000        12.860300000        18.129700000 H       184 pp       0.039424942
     1682 C1            1.283910000        15.440200000        19.154300000 C.3     185 pp      -0.086043058
     1683 C2            0.946977000        15.843200000        17.695000000 C.3     185 pp      -0.074342058
     1684 H4            1.793000000        16.277600000        19.629600000 H       185 pp       0.039424942
     1685 H5            0.353501000        15.294000000        19.689700000 H       185 pp       0.039424942
     1686 H6            0.532832000        15.003800000        17.141400000 H       185 pp       0.043757942
     1687 C8            2.192440000        16.360200000        16.953700000 C.3     185 pp      -0.086043058
     1688 H9            2.580030000        17.249200000        17.451400000 H       185 pp       0.039424942
     1689 H10           2.968850000        15.600200000        16.926500000 H       185 pp       0.039424942
     1690 H11           1.932970000        16.610700000        15.925200000 H       185 pp       0.039424942
     1691 C1           -0.094800000        16.984500000        17.693900000 C.3     186 pp      -0.086043058
     1692 C2           -1.543600000        16.512300000        17.958900000 C.3     186 pp      -0.074342058
     1693 H4           -0.080200000        17.479300000        16.723800000 H       186 pp       0.039424942
     1694 H5            0.210016000        17.720200000        18.429300000 H       186 pp       0.039424942
     1695 H6           -1.549000000        15.565100000        18.486500000 H       186 pp       0.043757942
     1696 C8           -2.219300000        16.240300000        16.606000000 C.3     186 pp      -0.086043058
     1697 H9           -2.391100000        17.175700000        16.073700000 H       186 pp       0.039424942
     1698 H10          -1.590800000        15.590800000        15.997700000 H       186 pp       0.039424942
     1699 H11          -3.173400000        15.740100000        16.768500000 H       186 pp       0.039424942
     1700 C1           -2.398200000        17.565900000        18.710300000 C.3     187 pp      -0.086043058
     1701 C2           -2.330500000        17.624900000        20.260600000 C.3     187 pp      -0.074342058
     1702 H4           -3.441100000        17.367100000        18.467300000 H       187 pp       0.039424942
     1703 H5           -2.166900000        18.551500000        18.306700000 H       187 pp       0.039424942
     1704 H6           -3.142200000        18.290200000        20.542700000 H       187 pp       0.043757942
     1705 C8           -1.041800000        18.291400000        20.771400000 C.3     187 pp      -0.086043058
     1706 H9           -0.221900000        17.576700000        20.803800000 H       187 pp       0.039424942
     1707 H10          -0.772500000        19.129200000        20.129500000 H       187 pp       0.039424942
     1708 H11          -1.206500000        18.687000000        21.768900000 H       187 pp       0.039424942
     1709 C1           -2.595900000        16.234500000        20.890700000 C.3     188 pp      -0.086043058
     1710 C2           -3.079000000        16.138300000        22.355000000 C.3     188 pp      -0.074342058
     1711 H4           -1.700700000        15.623800000        20.812500000 H       188 pp       0.039424942
     1712 H5           -3.367600000        15.755000000        20.290700000 H       188 pp       0.039424942
     1713 H6           -3.317800000        15.085100000        22.473700000 H       188 pp       0.043757942
     1714 C8           -4.380700000        16.913000000        22.605100000 C.3     188 pp      -0.086043058
     1715 H9           -4.202000000        17.987400000        22.627300000 H       188 pp       0.039424942
     1716 H10          -5.085900000        16.677700000        21.811500000 H       188 pp       0.039424942
     1717 H11          -4.813400000        16.609000000        23.557100000 H       188 pp       0.039424942
     1718 C1           -2.003900000        16.487300000        23.403900000 C.3     189 pp      -0.086043058
     1719 C2           -2.213900000        15.727200000        24.732600000 C.3     189 pp      -0.074342058
     1720 H4           -2.033900000        17.555700000        23.604500000 H       189 pp       0.039424942
     1721 H5           -1.020800000        16.248000000        23.002800000 H       189 pp       0.039424942
     1722 H6           -3.129900000        15.145800000        24.702500000 H       189 pp       0.043757942
     1723 C8           -2.371000000        16.741100000        25.873200000 C.3     189 pp      -0.086043058
     1724 H9           -1.449800000        17.309200000        25.994200000 H       189 pp       0.039424942
     1725 H10          -3.197900000        17.417800000        25.657200000 H       189 pp       0.039424942
     1726 H11          -2.588700000        16.220500000        26.804600000 H       189 pp       0.039424942
     1727 C1           -1.023300000        14.807800000        25.071400000 C.3     190 pp      -0.086043058
     1728 C2           -0.910000000        13.537900000        24.198900000 C.3     190 pp      -0.074342058
     1729 H4           -1.112000000        14.503700000        26.113200000 H       190 pp       0.039424942
     1730 H5           -0.112000000        15.393100000        24.965300000 H       190 pp       0.039424942
     1731 H6           -1.118900000        13.808800000        23.165700000 H       190 pp       0.043757942
     1732 C8           -1.940600000        12.460600000        24.587500000 C.3     190 pp      -0.086043058
     1733 H9           -2.941800000        12.814700000        24.363200000 H       190 pp       0.039424942
     1734 H10          -1.765900000        11.553800000        24.009200000 H       190 pp       0.039424942
     1735 H11          -1.888000000        12.221600000        25.648000000 H       190 pp       0.039424942
     1736 C1            0.522910000        12.958700000        24.197400000 C.3     191 pp      -0.086043058
     1737 C2            1.115570000        12.581600000        25.580200000 C.3     191 pp      -0.074342058
     1738 H4            1.177900000        13.675600000        23.703900000 H       191 pp       0.039424942
     1739 H5            0.493367000        12.069200000        23.571000000 H       191 pp       0.039424942
     1740 H6            0.300884000        12.501100000        26.294000000 H       191 pp       0.043757942
     1741 C8            2.031470000        13.679600000        26.154100000 C.3     191 pp      -0.086043058
     1742 H9            2.698620000        14.080200000        25.393100000 H       191 pp       0.039424942
     1743 H10           1.426630000        14.494200000        26.545000000 H       191 pp       0.039424942
     1744 H11           2.618540000        13.278700000        26.979200000 H       191 pp       0.039424942
     1745 C1            1.756720000        11.171100000        25.591800000 C.3     192 pp      -0.086043058
     1746 C2            2.930090000        10.856400000        24.622500000 C.3     192 pp      -0.074342058
     1747 H4            0.950693000        10.478100000        25.351900000 H       192 pp       0.039424942
     1748 H5            2.044100000        10.956000000        26.613600000 H       192 pp       0.039424942
     1749 H6            2.704540000        11.336200000        23.675800000 H       192 pp       0.043757942
     1750 C8            2.951460000         9.353310000        24.304200000 C.3     192 pp      -0.086043058
     1751 H9            2.969620000         8.766140000        25.220100000 H       192 pp       0.039424942
     1752 H10           2.060180000         9.090650000        23.734100000 H       192 pp       0.039424942
     1753 H11           3.827630000         9.116070000        23.700700000 H       192 pp       0.039424942
     1754 C1            4.337940000        11.375500000        25.007900000 C.3     193 pp      -0.086043058
     1755 C2            5.225510000        10.601300000        26.014200000 C.3     193 pp      -0.074342058
     1756 H4            4.235450000        12.394000000        25.344600000 H       193 pp       0.039424942
     1757 H5            4.900830000        11.405200000        24.075700000 H       193 pp       0.039424942
     1758 H6            5.420210000         9.613000000        25.600900000 H       193 pp       0.043757942
     1759 C8            4.594810000        10.386500000        27.398600000 C.3     193 pp      -0.086043058
     1760 H9            5.332380000         9.976050000        28.085400000 H       193 pp       0.039424942
     1761 H10           4.203950000        11.318600000        27.798600000 H       193 pp       0.039424942
     1762 H11           3.785650000         9.668580000        27.320300000 H       193 pp       0.039424942
     1763 C1            6.613660000        11.275700000        26.147800000 C.3     194 pp      -0.086043058
     1764 C2            6.622830000        12.732200000        26.681000000 C.3     194 pp      -0.074342058
     1765 H4            7.086430000        11.265000000        25.166300000 H       194 pp       0.039424942
     1766 H5            7.226640000        10.649400000        26.792500000 H       194 pp       0.039424942
     1767 H6            5.651140000        13.013300000        27.073700000 H       194 pp       0.043757942
     1768 C8            6.946240000        13.701400000        25.531700000 C.3     194 pp      -0.086043058
     1769 H9            7.990020000        13.596500000        25.234500000 H       194 pp       0.039424942
     1770 H10           6.309540000        13.507600000        24.670700000 H       194 pp       0.039424942
     1771 H11           6.766220000        14.723800000        25.862600000 H       194 pp       0.039424942
     1772 C1            7.680850000        12.955700000        27.781500000 C.3     195 pp      -0.086043058
     1773 C2            7.332940000        12.355600000        29.158100000 C.3     195 pp      -0.074342058
     1774 H4            7.824610000        14.027500000        27.914700000 H       195 pp       0.039424942
     1775 H5            8.628800000        12.535700000        27.448400000 H       195 pp       0.039424942
     1776 H6            7.079890000        11.302500000        29.070200000 H       195 pp       0.043757942
     1777 H7            8.217960000        12.431500000        29.787000000 H       195 pp       0.043757942
     1778 C8            6.191330000        13.094300000        29.871400000 C.3     195 pp      -0.086043058
     1779 H9            6.355230000        14.169700000        29.831700000 H       195 pp       0.039424942
     1780 H10           5.234210000        12.859500000        29.410800000 H       195 pp       0.039424942
     1781 H11           6.163350000        12.776900000        30.913600000 H       195 pp       0.039424942
     1782 C1           16.814100000        23.679200000        44.280980000 C.3     196 pp      -0.086043058
     1783 C2           16.154900000        23.082600000        43.030700000 C.3     196 pp      -0.074342058
     1784 H3           17.254800000        24.646800000        44.039980000 H       196 pp       0.039424942
     1785 H4           16.064300000        23.820100000        45.059240000 H       196 pp       0.039424942
     1786 H5           17.592000000        23.008900000        44.647530000 H       196 pp       0.039424942
     1787 H6           15.447100000        23.811200000        42.637370000 H       196 pp       0.043757942
     1788 C8           15.394700000        21.806700000        43.429580000 C.3     196 pp      -0.086043058
     1789 H9           16.068900000        21.105700000        43.922040000 H       196 pp       0.039424942
     1790 H10          14.588800000        22.065100000        44.116300000 H       196 pp       0.039424942
     1791 H11          14.962900000        21.328200000        42.551690000 H       196 pp       0.039424942
     1792 C1           17.239900000        22.777400000        41.982030000 C.3     197 pp      -0.086043058
     1793 C2           16.689000000        22.767100000        40.543195000 C.3     197 pp      -0.074342058
     1794 H4           17.669600000        21.802000000        42.208400000 H       197 pp       0.039424942
     1795 H5           18.031500000        23.515800000        42.059260000 H       197 pp       0.039424942
     1796 H6           15.654600000        22.432400000        40.576772000 H       197 pp       0.043757942
     1797 C8           17.439300000        21.719300000        39.717000000 C.3     197 pp      -0.086043058
     1798 H9           17.181400000        21.841300000        38.670800000 H       197 pp       0.039424942
     1799 H10          18.511600000        21.825600000        39.837807400 H       197 pp       0.039424942
     1800 H11          17.147200000        20.721500000        40.043136000 H       197 pp       0.039424942
     1801 C1           16.664100000        24.152400000        39.856193900 C.3     198 pp      -0.086043058
     1802 C2           18.025100000        24.799800000        39.493600000 C.3     198 pp      -0.074342058
     1803 H4           16.113300000        24.834200000        40.501167000 H       198 pp       0.039424942
     1804 H5           16.076100000        24.040500000        38.946100000 H       198 pp       0.039424942
     1805 H6           18.840700000        24.124900000        39.729800000 H       198 pp       0.043757942
     1806 C8           18.202100000        26.068500000        40.348168000 C.3     198 pp      -0.086043058
     1807 H9           17.461300000        26.817900000        40.071743000 H       198 pp       0.039424942
     1808 H10          18.084300000        25.829100000        41.403980000 H       198 pp       0.039424942
     1809 H11          19.200100000        26.479900000        40.211851000 H       198 pp       0.039424942
     1810 C1           18.063500000        25.078000000        37.970500000 C.3     199 pp      -0.086043058
     1811 C2           19.359000000        25.739300000        37.439500000 C.3     199 pp      -0.074342058
     1812 H4           17.216800000        25.704900000        37.695600000 H       199 pp       0.039424942
     1813 H5           17.940800000        24.118800000        37.469000000 H       199 pp       0.039424942
     1814 H6           20.157900000        25.607500000        38.166000000 H       199 pp       0.043757942
     1815 C8           19.094400000        27.242900000        37.224900000 C.3     199 pp      -0.086043058
     1816 H9           18.397300000        27.381700000        36.399700000 H       199 pp       0.039424942
     1817 H10          18.665500000        27.690200000        38.117700000 H       199 pp       0.039424942
     1818 H11          20.021900000        27.768500000        37.005500000 H       199 pp       0.039424942
     1819 C1           19.787300000        25.039100000        36.126900000 C.3     200 pp      -0.086043058
     1820 C2           21.052200000        25.616200000        35.440400000 C.3     200 pp      -0.074342058
     1821 H4           18.955900000        25.069100000        35.422200000 H       200 pp       0.039424942
     1822 H5           19.979800000        23.993900000        36.364800000 H       200 pp       0.039424942
     1823 H6           21.598500000        26.248500000        36.138200000 H       200 pp       0.043757942
     1824 C8           20.615200000        26.453600000        34.222300000 C.3     200 pp      -0.086043058
     1825 H9           20.204400000        25.799800000        33.457400000 H       200 pp       0.039424942
     1826 H10          19.854700000        27.176900000        34.505100000 H       200 pp       0.039424942
     1827 H11          21.456300000        27.006300000        33.808800000 H       200 pp       0.039424942
     1828 C1           21.986600000        24.449600000        35.041400000 C.3     201 pp      -0.086043058
     1829 C2           23.273700000        24.850300000        34.279500000 C.3     201 pp      -0.074342058
     1830 H4           21.427300000        23.733600000        34.438500000 H       201 pp       0.039424942
     1831 H5           22.281700000        23.957800000        35.962200000 H       201 pp       0.039424942
     1832 H6           23.425800000        25.923500000        34.334200000 H       201 pp       0.043757942
     1833 C8           23.123500000        24.478300000        32.794000000 C.3     201 pp      -0.086043058
     1834 H9           23.122300000        23.394300000        32.677800000 H       201 pp       0.039424942
     1835 H10          22.198000000        24.881100000        32.387900000 H       201 pp       0.039424942
     1836 H11          23.954600000        24.896200000        32.225700000 H       201 pp       0.039424942
     1837 C1           24.538200000        24.118600000        34.794800000 C.3     202 pp      -0.086043058
     1838 C2           25.129700000        24.607400000        36.138900000 C.3     202 pp      -0.074342058
     1839 H4           25.317500000        24.223800000        34.040000000 H       202 pp       0.039424942
     1840 H5           24.301000000        23.059900000        34.879300000 H       202 pp       0.039424942
     1841 H6           24.398800000        24.440600000        36.926700000 H       202 pp       0.043757942
     1842 C8           25.471600000        26.107100000        36.072900000 C.3     202 pp      -0.086043058
     1843 H9           25.909000000        26.351500000        35.104800000 H       202 pp       0.039424942
     1844 H10          24.568100000        26.696900000        36.223400000 H       202 pp       0.039424942
     1845 H11          26.183500000        26.373600000        36.850500000 H       202 pp       0.039424942
     1846 C1           26.419800000        23.807100000        36.449100000 C.3     203 pp      -0.086043058
     1847 C2           26.553700000        23.286100000        37.901900000 C.3     203 pp      -0.074342058
     1848 H4           27.290200000        24.416000000        36.206000000 H       203 pp       0.039424942
     1849 H5           26.439000000        22.941700000        35.790500000 H       203 pp       0.039424942
     1850 H6           25.713200000        22.626200000        38.101500000 H       203 pp       0.043757942
     1851 C8           26.547600000        24.430100000        38.931500000 C.3     203 pp      -0.086043058
     1852 H9           27.439700000        25.045100000        38.815000000 H       203 pp       0.039424942
     1853 H10          25.670500000        25.056300000        38.806800000 H       203 pp       0.039424942
     1854 H11          26.513500000        24.022000000        39.939820000 H       203 pp       0.039424942
     1855 C1           27.862100000        22.464000000        38.002300000 C.3     204 pp      -0.086043058
     1856 C2           28.061000000        21.665300000        39.316800000 C.3     204 pp      -0.074342058
     1857 H4           28.711700000        23.131400000        37.860600000 H       204 pp       0.039424942
     1858 H5           27.867200000        21.759600000        37.173400000 H       204 pp       0.039424942
     1859 H6           27.108100000        21.569900000        39.837063300 H       204 pp       0.043757942
     1860 C8           29.062300000        22.413000000        40.218190000 C.3     204 pp      -0.086043058
     1861 H9           30.055900000        22.391800000        39.770900000 H       204 pp       0.039424942
     1862 H10          28.767800000        23.450900000        40.348273000 H       204 pp       0.039424942
     1863 H11          29.095900000        21.951300000        41.203760000 H       204 pp       0.039424942
     1864 C1           28.564300000        20.245800000        38.955600000 C.3     205 pp      -0.086043058
     1865 C2           28.852500000        19.276700000        40.132599000 C.3     205 pp      -0.074342058
     1866 H4           29.463000000        20.335900000        38.345500000 H       205 pp       0.039424942
     1867 H5           27.792000000        19.793700000        38.340300000 H       205 pp       0.039424942
     1868 H6           28.345500000        19.630500000        41.029770000 H       205 pp       0.043757942
     1869 C8           30.374500000        19.239700000        40.387300000 C.3     205 pp      -0.086043058
     1870 H9           30.755900000        20.238700000        40.576394000 H       205 pp       0.039424942
     1871 H10          30.605100000        18.633400000        41.261000000 H       205 pp       0.039424942
     1872 H11          30.892800000        18.833500000        39.519200000 H       205 pp       0.039424942
     1873 C1           28.273300000        17.880300000        39.779300000 C.3     206 pp      -0.086043058
     1874 C2           28.555400000        16.739200000        40.801358000 C.3     206 pp      -0.074342058
     1875 H4           28.650900000        17.577100000        38.802600000 H       206 pp       0.039424942
     1876 H5           27.199100000        18.015900000        39.677000000 H       206 pp       0.039424942
     1877 H6           28.838700000        17.178500000        41.756360000 H       206 pp       0.043757942
     1878 C8           29.727200000        15.897100000        40.245508000 C.3     206 pp      -0.086043058
     1879 H9           29.367300000        15.182000000        39.506400000 H       206 pp       0.039424942
     1880 H10          30.474400000        16.526000000        39.770400000 H       206 pp       0.039424942
     1881 H11          30.230200000        15.366000000        41.046920000 H       206 pp       0.039424942
     1882 C1           27.289900000        15.865600000        41.043050000 C.3     207 pp      -0.086043058
     1883 C2           27.204600000        15.059600000        42.367820000 C.3     207 pp      -0.074342058
     1884 H4           27.143100000        15.188700000        40.203168000 H       207 pp       0.039424942
     1885 H5           26.445400000        16.543500000        41.074610000 H       207 pp       0.039424942
     1886 H6           27.314000000        15.756200000        43.198310000 H       207 pp       0.043757942
     1887 C8           28.299400000        13.983600000        42.468100000 C.3     207 pp      -0.086043058
     1888 H9           28.479500000        13.547500000        41.486940000 H       207 pp       0.039424942
     1889 H10          29.211900000        14.434000000        42.853390000 H       207 pp       0.039424942
     1890 H11          28.016400000        13.186100000        43.149510000 H       207 pp       0.039424942
     1891 C1           25.815300000        14.376500000        42.459810000 C.3     208 pp      -0.086043058
     1892 C2           25.137100000        14.441100000        43.853470000 C.3     208 pp      -0.074342058
     1893 H4           25.901100000        13.336100000        42.144860000 H       208 pp       0.039424942
     1894 H5           25.153800000        14.871300000        41.753040000 H       208 pp       0.039424942
     1895 H6           25.062500000        15.485900000        44.153400000 H       208 pp       0.043757942
     1896 C8           25.936100000        13.671000000        44.921770000 C.3     208 pp      -0.086043058
     1897 H9           26.130300000        12.652700000        44.584360000 H       208 pp       0.039424942
     1898 H10          26.881000000        14.175700000        45.117530000 H       208 pp       0.039424942
     1899 H11          25.381600000        13.625200000        45.856160000 H       208 pp       0.039424942
     1900 C1           23.718900000        13.830200000        43.756240000 C.3     209 pp      -0.086043058
     1901 C2           22.594600000        14.673300000        44.400520000 C.3     209 pp      -0.074342058
     1902 H4           23.721200000        12.837800000        44.203110000 H       209 pp       0.039424942
     1903 H5           23.478400000        13.710900000        42.704720000 H       209 pp       0.039424942
     1904 H6           22.710600000        15.706900000        44.094080000 H       209 pp       0.043757942
     1905 C8           22.656600000        14.607200000        45.935490000 C.3     209 pp      -0.086043058
     1906 H9           23.573800000        15.078700000        46.281980000 H       209 pp       0.039424942
     1907 H10          21.822400000        15.146900000        46.376660000 H       209 pp       0.039424942
     1908 H11          22.627600000        13.570900000        46.272480000 H       209 pp       0.039424942
     1909 C1           21.234100000        14.169400000        43.874270000 C.3     210 pp      -0.086043058
     1910 C2           20.037600000        15.036900000        44.295030000 C.3     210 pp      -0.074342058
     1911 H4           21.067500000        13.159000000        44.232970000 H       210 pp       0.039424942
     1912 H5           21.257200000        14.150700000        42.786330000 H       210 pp       0.039424942
     1913 H6           19.718100000        14.760400000        45.299430000 H       210 pp       0.043757942
     1914 H7           20.307100000        16.090600000        44.277220000 H       210 pp       0.043757942
     1915 C8           18.865600000        14.820400000        43.332680000 C.3     210 pp      -0.086043058
     1916 H9           19.102100000        15.250200000        42.359490000 H       210 pp       0.039424942
     1917 H10          18.669200000        13.754900000        43.220690000 H       210 pp       0.039424942
     1918 H11          17.977900000        15.310700000        43.732210000 H       210 pp       0.039424942
     1919 C1           32.110700000        42.046700000         0.965530000 C.3     211 pp      -0.086043058
     1920 C2           33.194700000        42.615200000         1.894880000 C.3     211 pp      -0.074342058
     1921 H3           32.208800000        42.488490000        -0.025300000 H       211 pp       0.039424942
     1922 H4           32.214300000        40.964920000         0.887921000 H       211 pp       0.039424942
     1923 H5           31.123500000        42.289340000         1.350300000 H       211 pp       0.039424942
     1924 H6           33.012500000        43.676300000         2.054350000 H       211 pp       0.043757942
     1925 C8           34.556000000        42.481170000         1.202440000 C.3     211 pp      -0.086043058
     1926 H9           34.767000000        41.434530000         0.985890000 H       211 pp       0.039424942
     1927 H10          34.547400000        43.045140000         0.270943000 H       211 pp       0.039424942
     1928 H11          35.337600000        42.880300000         1.848650000 H       211 pp       0.039424942
     1929 C1           33.261500000        41.876350000         3.248130000 C.3     212 pp      -0.086043058
     1930 C2           31.973800000        41.898110000         4.101280000 C.3     212 pp      -0.074342058
     1931 H4           34.065100000        42.319450000         3.837970000 H       212 pp       0.039424942
     1932 H5           33.519600000        40.836490000         3.047390000 H       212 pp       0.039424942
     1933 H6           31.197100000        41.326290000         3.597420000 H       212 pp       0.043757942
     1934 C8           31.473200000        43.326840000         4.346300000 C.3     212 pp      -0.086043058
     1935 H9           32.303800000        43.967560000         4.644270000 H       212 pp       0.039424942
     1936 H10          31.018800000        43.715370000         3.437890000 H       212 pp       0.039424942
     1937 H11          30.720900000        43.332220000         5.132590000 H       212 pp       0.039424942
     1938 C1           32.294500000        41.246890000         5.457680000 C.3     213 pp      -0.086043058
     1939 C2           31.073600000        40.581465000         6.125700000 C.3     213 pp      -0.074342058
     1940 H4           32.709100000        42.012750000         6.112940000 H       213 pp       0.039424942
     1941 H5           33.057900000        40.487224000         5.314510000 H       213 pp       0.039424942
     1942 H6           30.161200000        41.105850000         5.843670000 H       213 pp       0.043757942
     1943 C8           31.250500000        40.711427000         7.649210000 C.3     213 pp      -0.086043058
     1944 H9           31.325300000        41.761080000         7.929210000 H       213 pp       0.039424942
     1945 H10          30.390800000        40.294984000         8.172610000 H       213 pp       0.039424942
     1946 H11          32.158400000        40.193667000         7.961510000 H       213 pp       0.039424942
     1947 C1           30.984000000        39.115900000         5.640250000 C.3     214 pp      -0.086043058
     1948 C2           29.771900000        38.323500000         6.181160000 C.3     214 pp      -0.074342058
     1949 H4           31.895000000        38.584400000         5.915230000 H       214 pp       0.039424942
     1950 H5           30.943800000        39.138600000         4.553350000 H       214 pp       0.039424942
     1951 H6           29.037100000        39.018100000         6.581540000 H       214 pp       0.043757942
     1952 C8           30.325000000        37.433600000         7.308360000 C.3     214 pp      -0.086043058
     1953 H9           30.877800000        36.600200000         6.881960000 H       214 pp       0.039424942
     1954 H10          30.989600000        37.980700000         7.969950000 H       214 pp       0.039424942
     1955 H11          29.512500000        37.061400000         7.916440000 H       214 pp       0.039424942
     1956 C1           29.131500000        37.512400000         5.017840000 C.3     215 pp      -0.086043058
     1957 C2           27.778500000        36.777600000         5.216110000 C.3     215 pp      -0.074342058
     1958 H4           29.861400000        36.783800000         4.664270000 H       215 pp       0.039424942
     1959 H5           28.947400000        38.209400000         4.198430000 H       215 pp       0.039424942
     1960 H6           27.561800000        36.380100000         4.224680000 H       215 pp       0.043757942
     1961 C8           26.616100000        37.752000000         5.451460000 C.3     215 pp      -0.086043058
     1962 H9           26.752500000        38.310500000         6.373350000 H       215 pp       0.039424942
     1963 H10          26.570200000        38.460100000         4.619900000 H       215 pp       0.039424942
     1964 H11          25.676800000        37.201500000         5.474420000 H       215 pp       0.039424942
     1965 C1           27.883500000        35.484000000         6.066900000 C.3     216 pp      -0.086043058
     1966 C2           26.918200000        35.121200000         7.236150000 C.3     216 pp      -0.074342058
     1967 H4           28.904600000        35.416300000         6.390980000 H       216 pp       0.039424942
     1968 H5           27.753100000        34.676200000         5.346290000 H       216 pp       0.039424942
     1969 H6           25.983000000        34.858300000         6.749770000 H       216 pp       0.043757942
     1970 C8           26.538100000        36.210800000         8.259920000 C.3     216 pp      -0.086043058
     1971 H9           27.397700000        36.809600000         8.529100000 H       216 pp       0.039424942
     1972 H10          25.757300000        36.851600000         7.857410000 H       216 pp       0.039424942
     1973 H11          26.123800000        35.765800000         9.159640000 H       216 pp       0.039424942
     1974 C1           27.378600000        33.836600000         7.990920000 C.3     217 pp      -0.086043058
     1975 C2           28.838000000        33.809200000         8.533480000 C.3     217 pp      -0.074342058
     1976 H4           27.262800000        33.002300000         7.298730000 H       217 pp       0.039424942
     1977 H5           26.689000000        33.650800000         8.810430000 H       217 pp       0.039424942
     1978 H6           29.240000000        34.810500000         8.507340000 H       217 pp       0.043757942
     1979 C8           29.679700000        32.903900000         7.613220000 C.3     217 pp      -0.086043058
     1980 H9           29.383100000        31.863200000         7.744700000 H       217 pp       0.039424942
     1981 H10          29.544900000        33.172000000         6.568070000 H       217 pp       0.039424942
     1982 H11          30.735500000        33.011600000         7.853390000 H       217 pp       0.039424942
     1983 C1           29.015800000        33.251600000         9.970940000 C.3     218 pp      -0.086043058
     1984 C2           29.269400000        34.266500000        11.117000000 C.3     218 pp      -0.074342058
     1985 H4           29.877600000        32.587200000         9.973870000 H       218 pp       0.039424942
     1986 H5           28.153400000        32.641100000        10.230400000 H       218 pp       0.039424942
     1987 H6           29.326400000        33.689900000        12.036900000 H       218 pp       0.043757942
     1988 C8           28.081800000        35.209200000        11.330300000 C.3     218 pp      -0.086043058
     1989 H9           28.170200000        36.080800000        10.685200000 H       218 pp       0.039424942
     1990 H10          27.149500000        34.687900000        11.124900000 H       218 pp       0.039424942
     1991 H11          28.068600000        35.538000000        12.369000000 H       218 pp       0.039424942
     1992 C1           30.572300000        35.094400000        11.008600000 C.3     219 pp      -0.086043058
     1993 C2           31.843700000        34.346300000        11.475700000 C.3     219 pp      -0.074342058
     1994 H4           30.455300000        35.972900000        11.641800000 H       219 pp       0.039424942
     1995 H5           30.710000000        35.451800000         9.993560000 H       219 pp       0.039424942
     1996 H6           31.565800000        33.336400000        11.774800000 H       219 pp       0.043757942
     1997 C8           32.427800000        35.023500000        12.727100000 C.3     219 pp      -0.086043058
     1998 H9           32.704100000        36.058000000        12.522200000 H       219 pp       0.039424942
     1999 H10          31.687200000        35.003600000        13.527500000 H       219 pp       0.039424942
     2000 H11          33.310600000        34.476500000        13.057800000 H       219 pp       0.039424942
     2001 C1           32.904600000        34.173300000        10.364800000 C.3     220 pp      -0.086043058
     2002 C2           33.498400000        35.472600000         9.764270000 C.3     220 pp      -0.074342058
     2003 H4           32.446300000        33.583500000         9.573540000 H       220 pp       0.039424942
     2004 H5           33.714400000        33.569400000        10.772800000 H       220 pp       0.039424942
     2005 H6           32.903800000        36.318600000        10.095600000 H       220 pp       0.043757942
     2006 C8           33.413600000        35.395100000         8.229700000 C.3     220 pp      -0.086043058
     2007 H9           34.103400000        34.640300000         7.851960000 H       220 pp       0.039424942
     2008 H10          32.402300000        35.135300000         7.923710000 H       220 pp       0.039424942
     2009 H11          33.656700000        36.361600000         7.790240000 H       220 pp       0.039424942
     2010 C1           34.965600000        35.644600000        10.227700000 C.3     221 pp      -0.086043058
     2011 C2           35.712600000        36.915300000         9.751180000 C.3     221 pp      -0.074342058
     2012 H4           35.525400000        34.779500000         9.872350000 H       221 pp       0.039424942
     2013 H5           34.986100000        35.633300000        11.316500000 H       221 pp       0.039424942
     2014 H6           35.775200000        36.905200000         8.665200000 H       221 pp       0.043757942
     2015 C8           37.146000000        36.824400000        10.304000000 C.3     221 pp      -0.086043058
     2016 H9           37.573600000        35.848700000        10.075100000 H       221 pp       0.039424942
     2017 H10          37.780900000        37.580700000         9.845890000 H       221 pp       0.039424942
     2018 H11          37.138800000        36.964100000        11.384500000 H       221 pp       0.039424942
     2019 C1           35.008900000        38.207000000        10.233200000 C.3     222 pp      -0.086043058
     2020 C2           35.717000000        39.549300000         9.933780000 C.3     222 pp      -0.074342058
     2021 H4           34.872900000        38.119700000        11.310900000 H       222 pp       0.039424942
     2022 H5           34.025500000        38.266600000         9.772020000 H       222 pp       0.039424942
     2023 H6           36.664700000        39.584700000        10.466500000 H       222 pp       0.043757942
     2024 C8           34.821900000        40.649268000        10.520400000 C.3     222 pp      -0.086043058
     2025 H9           33.938700000        40.790615000         9.897950000 H       222 pp       0.039424942
     2026 H10          34.506600000        40.379061000        11.527000000 H       222 pp       0.039424942
     2027 H11          35.379500000        41.580640000        10.582600000 H       222 pp       0.039424942
     2028 C1           35.945400000        39.739400000         8.411820000 C.3     223 pp      -0.086043058
     2029 C2           36.319400000        41.155530000         7.909700000 C.3     223 pp      -0.074342058
     2030 H4           35.025400000        39.444600000         7.907970000 H       223 pp       0.039424942
     2031 H5           36.735100000        39.062100000         8.090850000 H       223 pp       0.039424942
     2032 H6           35.563500000        41.870860000         8.225050000 H       223 pp       0.043757942
     2033 C8           36.284900000        41.114070000         6.373080000 C.3     223 pp      -0.086043058
     2034 H9           37.000800000        40.384925000         5.992770000 H       223 pp       0.039424942
     2035 H10          35.290900000        40.834810000         6.036240000 H       223 pp       0.039424942
     2036 H11          36.515100000        42.095310000         5.964400000 H       223 pp       0.039424942
     2037 C1           37.724300000        41.611910000         8.367440000 C.3     224 pp      -0.086043058
     2038 C2           37.776800000        43.069530000         8.881270000 C.3     224 pp      -0.074342058
     2039 H4           38.421100000        41.491740000         7.540840000 H       224 pp       0.039424942
     2040 H5           38.058800000        40.964510000         9.174050000 H       224 pp       0.039424942
     2041 H6           37.025800000        43.170660000         9.663350000 H       224 pp       0.043757942
     2042 C8           37.441800000        44.123510000         7.808420000 C.3     224 pp      -0.086043058
     2043 H9           38.031800000        43.972620000         6.907490000 H       224 pp       0.039424942
     2044 H10          36.385700000        44.068120000         7.549670000 H       224 pp       0.039424942
     2045 H11          37.642500000        45.119380000         8.200040000 H       224 pp       0.039424942
     2046 C1           39.128700000        43.379890000         9.561880000 C.3     225 pp      -0.086043058
     2047 C2           40.380750000        43.310290000         8.664980000 C.3     225 pp      -0.074342058
     2048 H4           39.257500000        42.695780000        10.399000000 H       225 pp       0.039424942
     2049 H5           39.075800000        44.387410000         9.974040000 H       225 pp       0.039424942
     2050 H6           40.122180000        43.255370000         7.610880000 H       225 pp       0.043757942
     2051 H7           40.967310000        44.213460000         8.828460000 H       225 pp       0.043757942
     2052 C8           41.261320000        42.106990000         9.019580000 C.3     225 pp      -0.086043058
     2053 H9           41.616530000        42.196630000        10.046500000 H       225 pp       0.039424942
     2054 H10          40.698145000        41.181340000         8.906020000 H       225 pp       0.039424942
     2055 H11          42.119580000        42.085800000         8.348270000 H       225 pp       0.039424942
     2056 C1           18.716400000        42.690440000        14.509000000 C.3     226 pp      -0.086043058
     2057 C2           18.224300000        41.673410000        15.550600000 C.3     226 pp      -0.074342058
     2058 H3           18.440800000        42.367790000        13.505800000 H       226 pp       0.039424942
     2059 H4           18.247100000        43.655280000        14.694900000 H       226 pp       0.039424942
     2060 H5           19.799100000        42.799310000        14.574300000 H       226 pp       0.039424942
     2061 H6           17.161000000        41.497700000        15.401600000 H       226 pp       0.043757942
     2062 C8           18.384400000        42.284250000        16.950200000 C.3     226 pp      -0.086043058
     2063 H9           19.424600000        42.557990000        17.127400000 H       226 pp       0.039424942
     2064 H10          17.760800000        43.174040000        17.036500000 H       226 pp       0.039424942
     2065 H11          18.067600000        41.562400000        17.702400000 H       226 pp       0.039424942
     2066 C1           18.998300000        40.336590000        15.509300000 C.3     227 pp      -0.086043058
     2067 C2           19.080600000        39.596200000        14.151300000 C.3     227 pp      -0.074342058
     2068 H4           18.539600000        39.664900000        16.234500000 H       227 pp       0.039424942
     2069 H5           20.013500000        40.547078000        15.841700000 H       227 pp       0.039424942
     2070 H6           19.521000000        40.263153000        13.414400000 H       227 pp       0.043757942
     2071 C8           17.684100000        39.163600000        13.667000000 C.3     227 pp      -0.086043058
     2072 H9           16.979300000        39.988890000        13.711900000 H       227 pp       0.039424942
     2073 H10          17.733600000        38.849600000        12.628700000 H       227 pp       0.039424942
     2074 H11          17.313500000        38.343200000        14.278500000 H       227 pp       0.039424942
     2075 C1           20.036200000        38.393400000        14.365000000 C.3     228 pp      -0.086043058
     2076 C2           20.411500000        37.483000000        13.169700000 C.3     228 pp      -0.074342058
     2077 H4           19.641400000        37.773300000        15.168300000 H       228 pp       0.039424942
     2078 H5           20.984900000        38.799200000        14.715200000 H       228 pp       0.039424942
     2079 H6           21.345600000        37.015200000        13.469400000 H       228 pp       0.043757942
     2080 C8           20.737900000        38.284500000        11.899200000 C.3     228 pp      -0.086043058
     2081 H9           19.829500000        38.659200000        11.431600000 H       228 pp       0.039424942
     2082 H10          21.384500000        39.119900000        12.163000000 H       228 pp       0.039424942
     2083 H11          21.268200000        37.658600000        11.183600000 H       228 pp       0.039424942
     2084 C1           19.392200000        36.346500000        12.917200000 C.3     229 pp      -0.086043058
     2085 C2           19.996600000        35.149700000        12.148200000 C.3     229 pp      -0.074342058
     2086 H4           18.560300000        36.738900000        12.340700000 H       229 pp       0.039424942
     2087 H5           18.987900000        35.992600000        13.862200000 H       229 pp       0.039424942
     2088 H6           20.977600000        35.402700000        11.763800000 H       229 pp       0.043757942
     2089 C8           19.109000000        34.886100000        10.920300000 C.3     229 pp      -0.086043058
     2090 H9           18.101800000        34.613000000        11.236700000 H       229 pp       0.039424942
     2091 H10          19.065400000        35.777200000        10.293400000 H       229 pp       0.039424942
     2092 H11          19.525200000        34.075900000        10.323400000 H       229 pp       0.039424942
     2093 C1           20.072000000        33.837000000        12.969200000 C.3     230 pp      -0.086043058
     2094 C2           21.175000000        33.671300000        14.044900000 C.3     230 pp      -0.074342058
     2095 H4           20.235900000        33.025300000        12.261600000 H       230 pp       0.039424942
     2096 H5           19.101500000        33.662100000        13.431500000 H       230 pp       0.039424942
     2097 H6           21.156800000        32.612900000        14.297300000 H       230 pp       0.043757942
     2098 C8           20.832000000        34.411400000        15.349900000 C.3     230 pp      -0.086043058
     2099 H9           21.007000000        35.478200000        15.254200000 H       230 pp       0.039424942
     2100 H10          19.787800000        34.245500000        15.610200000 H       230 pp       0.039424942
     2101 H11          21.444300000        34.023400000        16.160100000 H       230 pp       0.039424942
     2102 C1           22.589500000        33.951700000        13.481900000 C.3     231 pp      -0.086043058
     2103 C2           23.761400000        33.529700000        14.404500000 C.3     231 pp      -0.074342058
     2104 H4           22.702700000        35.004400000        13.239600000 H       231 pp       0.039424942
     2105 H5           22.654200000        33.401800000        12.547500000 H       231 pp       0.039424942
     2106 H6           23.418400000        32.766800000        15.102500000 H       231 pp       0.043757942
     2107 C8           24.205500000        34.777200000        15.189400000 C.3     231 pp      -0.086043058
     2108 H9           23.388000000        35.475300000        15.344700000 H       231 pp       0.039424942
     2109 H10          24.557900000        34.481500000        16.170000000 H       231 pp       0.039424942
     2110 H11          24.996500000        35.290700000        14.649600000 H       231 pp       0.039424942
     2111 C1           24.909400000        32.930600000        13.544300000 C.3     232 pp      -0.086043058
     2112 C2           26.081400000        32.200600000        14.260700000 C.3     232 pp      -0.074342058
     2113 H4           25.311500000        33.704000000        12.889800000 H       232 pp       0.039424942
     2114 H5           24.442900000        32.176000000        12.915100000 H       232 pp       0.039424942
     2115 H6           25.665600000        31.479900000        14.964500000 H       232 pp       0.043757942
     2116 C8           27.031700000        33.157900000        15.008700000 C.3     232 pp      -0.086043058
     2117 H9           27.346000000        33.966200000        14.350100000 H       232 pp       0.039424942
     2118 H10          26.552400000        33.568900000        15.886600000 H       232 pp       0.039424942
     2119 H11          27.910400000        32.633200000        15.369000000 H       232 pp       0.039424942
     2120 C1           26.890900000        31.439200000        13.179300000 C.3     233 pp      -0.086043058
     2121 C2           27.949000000        30.446400000        13.722000000 C.3     233 pp      -0.074342058
     2122 H4           27.384500000        32.170400000        12.545000000 H       233 pp       0.039424942
     2123 H5           26.202300000        30.880500000        12.549000000 H       233 pp       0.039424942
     2124 H6           27.826600000        30.311200000        14.794800000 H       233 pp       0.043757942
     2125 C8           29.373100000        30.961700000        13.446400000 C.3     233 pp      -0.086043058
     2126 H9           29.569500000        30.958400000        12.374000000 H       233 pp       0.039424942
     2127 H10          29.504300000        31.971700000        13.827400000 H       233 pp       0.039424942
     2128 H11          30.097800000        30.315500000        13.941800000 H       233 pp       0.039424942
     2129 C1           27.840200000        29.076100000        13.026700000 C.3     234 pp      -0.086043058
     2130 C2           26.644700000        28.238900000        13.525000000 C.3     234 pp      -0.074342058
     2131 H4           28.749700000        28.506500000        13.214400000 H       234 pp       0.039424942
     2132 H5           27.778900000        29.242400000        11.951900000 H       234 pp       0.039424942
     2133 H6           25.866000000        28.905400000        13.886900000 H       234 pp       0.043757942
     2134 C8           27.108900000        27.359700000        14.700800000 C.3     234 pp      -0.086043058
     2135 H9           27.766100000        26.565100000        14.346900000 H       234 pp       0.039424942
     2136 H10          27.646900000        27.966000000        15.428500000 H       234 pp       0.039424942
     2137 H11          26.251100000        26.915400000        15.201600000 H       234 pp       0.039424942
     2138 C1           26.110800000        27.390200000        12.347900000 C.3     235 pp      -0.086043058
     2139 C2           24.781400000        26.656200000        12.615700000 C.3     235 pp      -0.074342058
     2140 H4           26.873100000        26.655500000        12.090000000 H       235 pp       0.039424942
     2141 H5           25.957000000        28.028200000        11.477500000 H       235 pp       0.039424942
     2142 H6           24.881300000        26.023800000        13.494700000 H       235 pp       0.043757942
     2143 C8           24.496100000        25.727200000        11.425900000 C.3     235 pp      -0.086043058
     2144 H9           24.395400000        26.309100000        10.509300000 H       235 pp       0.039424942
     2145 H10          25.313700000        25.016000000        11.309900000 H       235 pp       0.039424942
     2146 H11          23.577300000        25.167900000        11.603400000 H       235 pp       0.039424942
     2147 C1           23.604900000        27.645500000        12.773900000 C.3     236 pp      -0.086043058
     2148 C2           23.030700000        27.675900000        14.205800000 C.3     236 pp      -0.074342058
     2149 H4           22.803800000        27.370400000        12.088900000 H       236 pp       0.039424942
     2150 H5           23.937500000        28.641000000        12.486400000 H       236 pp       0.039424942
     2151 H6           23.845100000        27.566600000        14.918200000 H       236 pp       0.043757942
     2152 C8           22.069900000        26.480200000        14.344100000 C.3     236 pp      -0.086043058
     2153 H9           21.189500000        26.628100000        13.720700000 H       236 pp       0.039424942
     2154 H10          22.564600000        25.561400000        14.035000000 H       236 pp       0.039424942
     2155 H11          21.763500000        26.356100000        15.377600000 H       236 pp       0.039424942
     2156 C1           22.366900000        29.060100000        14.416400000 C.3     237 pp      -0.086043058
     2157 C2           21.720600000        29.405000000        15.781000000 C.3     237 pp      -0.074342058
     2158 H4           21.635100000        29.208700000        13.627400000 H       237 pp       0.039424942
     2159 H5           23.145500000        29.811000000        14.281100000 H       237 pp       0.039424942
     2160 H6           21.778900000        30.488400000        15.855800000 H       237 pp       0.043757942
     2161 C8           22.525800000        28.885900000        16.983100000 C.3     237 pp      -0.086043058
     2162 H9           22.450700000        27.805800000        17.076200000 H       237 pp       0.039424942
     2163 H10          23.571700000        29.166300000        16.864100000 H       237 pp       0.039424942
     2164 H11          22.147200000        29.340600000        17.897600000 H       237 pp       0.039424942
     2165 C1           20.227900000        29.012200000        15.883100000 C.3     238 pp      -0.086043058
     2166 C2           19.283900000        30.061500000        15.253700000 C.3     238 pp      -0.074342058
     2167 H4           19.957300000        28.891600000        16.931500000 H       238 pp       0.039424942
     2168 H5           20.086000000        28.059500000        15.387100000 H       238 pp       0.039424942
     2169 H6           19.783300000        30.507000000        14.400500000 H       238 pp       0.043757942
     2170 C8           18.982600000        31.185100000        16.258900000 C.3     238 pp      -0.086043058
     2171 H9           18.427400000        30.796700000        17.113700000 H       238 pp       0.039424942
     2172 H10          19.904700000        31.637200000        16.614900000 H       238 pp       0.039424942
     2173 H11          18.394300000        31.956500000        15.763800000 H       238 pp       0.039424942
     2174 C1           17.933100000        29.441600000        14.817300000 C.3     239 pp      -0.086043058
     2175 C2           17.658800000        29.402800000        13.295900000 C.3     239 pp      -0.074342058
     2176 H4           17.123500000        30.010400000        15.272300000 H       239 pp       0.039424942
     2177 H5           17.852700000        28.429700000        15.208300000 H       239 pp       0.039424942
     2178 H6           16.723200000        28.860500000        13.181300000 H       239 pp       0.043757942
     2179 C8           18.725500000        28.600300000        12.535100000 C.3     239 pp      -0.086043058
     2180 H9           19.600800000        29.216000000        12.337100000 H       239 pp       0.039424942
     2181 H10          19.012800000        27.727500000        13.118100000 H       239 pp       0.039424942
     2182 H11          18.314900000        28.254800000        11.587100000 H       239 pp       0.039424942
     2183 C1           17.454200000        30.826800000        12.729000000 C.3     240 pp      -0.086043058
     2184 C2           17.120900000        30.919100000        11.229600000 C.3     240 pp      -0.074342058
     2185 H4           18.358900000        31.405300000        12.876100000 H       240 pp       0.039424942
     2186 H5           16.651500000        31.311300000        13.283500000 H       240 pp       0.039424942
     2187 H6           17.044000000        31.976100000        10.975400000 H       240 pp       0.043757942
     2188 H7           17.920600000        30.486600000        10.630100000 H       240 pp       0.043757942
     2189 C8           15.789600000        30.254600000        10.867200000 C.3     240 pp      -0.086043058
     2190 H9           15.875100000        29.171800000        10.945600000 H       240 pp       0.039424942
     2191 H10          15.004700000        30.613100000        11.532400000 H       240 pp       0.039424942
     2192 H11          15.532400000        30.513300000         9.840180000 H       240 pp       0.039424942
     2193 C1           15.710700000        17.531000000        13.726600000 C.3     241 pp      -0.086043058
     2194 C2           16.002400000        18.936300000        14.271700000 C.3     241 pp      -0.074342058
     2195 H3           14.723000000        17.521900000        13.265800000 H       241 pp       0.039424942
     2196 H4           16.454400000        17.254300000        12.979300000 H       241 pp       0.039424942
     2197 H5           15.726900000        16.802200000        14.536200000 H       241 pp       0.039424942
     2198 H6           15.173900000        19.240000000        14.906700000 H       241 pp       0.043757942
     2199 C8           16.088400000        19.924400000        13.101700000 C.3     241 pp      -0.086043058
     2200 H9           16.959900000        19.699300000        12.486600000 H       241 pp       0.039424942
     2201 H10          15.187800000        19.848700000        12.492400000 H       241 pp       0.039424942
     2202 H11          16.167300000        20.942400000        13.484400000 H       241 pp       0.039424942
     2203 C1           17.321500000        18.953500000        15.066200000 C.3     242 pp      -0.086043058
     2204 C2           17.108400000        18.624300000        16.558700000 C.3     242 pp      -0.074342058
     2205 H4           17.773700000        19.938900000        14.975100000 H       242 pp       0.039424942
     2206 H5           17.994400000        18.223700000        14.619600000 H       242 pp       0.039424942
     2207 H6           16.285600000        17.915600000        16.616900000 H       242 pp       0.043757942
     2208 C8           16.677600000        19.866900000        17.354500000 C.3     242 pp      -0.086043058
     2209 H9           17.333600000        20.707900000        17.138300000 H       242 pp       0.039424942
     2210 H10          15.658000000        20.139100000        17.092700000 H       242 pp       0.039424942
     2211 H11          16.713600000        19.650400000        18.420700000 H       242 pp       0.039424942
     2212 C1           18.305400000        17.902500000        17.219100000 C.3     243 pp      -0.086043058
     2213 C2           19.588200000        18.724100000        17.505800000 C.3     243 pp      -0.074342058
     2214 H4           18.546800000        17.033500000        16.611600000 H       243 pp       0.039424942
     2215 H5           17.941500000        17.531800000        18.176200000 H       243 pp       0.039424942
     2216 H6           19.294600000        19.676500000        17.939000000 H       243 pp       0.043757942
     2217 C8           20.404500000        19.089600000        16.250000000 C.3     243 pp      -0.086043058
     2218 H9           20.338500000        18.312800000        15.491900000 H       243 pp       0.039424942
     2219 H10          20.014900000        20.016700000        15.834000000 H       243 pp       0.039424942
     2220 H11          21.451200000        19.251900000        16.502800000 H       243 pp       0.039424942
     2221 C1           20.442800000        18.079600000        18.624700000 C.3     244 pp      -0.086043058
     2222 C2           20.752600000        16.561000000        18.601900000 C.3     244 pp      -0.074342058
     2223 H4           19.891600000        18.273000000        19.545200000 H       244 pp       0.039424942
     2224 H5           21.384100000        18.622600000        18.702700000 H       244 pp       0.039424942
     2225 H6           19.827800000        16.014200000        18.760700000 H       244 pp       0.043757942
     2226 C8           21.669900000        16.313700000        19.816600000 C.3     244 pp      -0.086043058
     2227 H9           22.682200000        16.653200000        19.596900000 H       244 pp       0.039424942
     2228 H10          21.298100000        16.854700000        20.685900000 H       244 pp       0.039424942
     2229 H11          21.692700000        15.258500000        20.077700000 H       244 pp       0.039424942
     2230 C1           21.420100000        16.101700000        17.283000000 C.3     245 pp      -0.086043058
     2231 C2           21.861400000        14.622400000        17.169000000 C.3     245 pp      -0.074342058
     2232 H4           22.287700000        16.741300000        17.128000000 H       245 pp       0.039424942
     2233 H5           20.736500000        16.270400000        16.460900000 H       245 pp       0.039424942
     2234 H6           22.147600000        14.200700000        18.126100000 H       245 pp       0.043757942
     2235 C8           23.127300000        14.611800000        16.301300000 C.3     245 pp      -0.086043058
     2236 H9           22.924000000        15.085800000        15.341100000 H       245 pp       0.039424942
     2237 H10          23.923600000        15.154000000        16.807400000 H       245 pp       0.039424942
     2238 H11          23.461700000        13.588700000        16.134800000 H       245 pp       0.039424942
     2239 C1           20.835600000        13.700400000        16.465400000 C.3     246 pp      -0.086043058
     2240 C2           19.462900000        13.484600000        17.143700000 C.3     246 pp      -0.074342058
     2241 H4           21.298600000        12.719900000        16.358000000 H       246 pp       0.039424942
     2242 H5           20.666300000        14.089900000        15.464300000 H       246 pp       0.039424942
     2243 H6           18.945500000        14.437000000        17.237000000 H       246 pp       0.043757942
     2244 C8           19.652100000        12.862000000        18.539900000 C.3     246 pp      -0.086043058
     2245 H9           20.221800000        11.938700000        18.455300000 H       246 pp       0.039424942
     2246 H10          20.185600000        13.544400000        19.193400000 H       246 pp       0.039424942
     2247 H11          18.692500000        12.657800000        19.008100000 H       246 pp       0.039424942
     2248 C1           18.633800000        12.580700000        16.198000000 C.3     247 pp      -0.086043058
     2249 C2           17.196100000        12.265600000        16.670600000 C.3     247 pp      -0.074342058
     2250 H4           19.166700000        11.644500000        16.037700000 H       247 pp       0.039424942
     2251 H5           18.569700000        13.087800000        15.237800000 H       247 pp       0.039424942
     2252 H6           16.907200000        12.980100000        17.440800000 H       247 pp       0.043757942
     2253 C8           17.173400000        10.840400000        17.248800000 C.3     247 pp      -0.086043058
     2254 H9           17.154000000        10.111500000        16.440600000 H       247 pp       0.039424942
     2255 H10          18.047200000        10.653900000        17.863500000 H       247 pp       0.039424942
     2256 H11          16.296200000        10.709700000        17.874000000 H       247 pp       0.039424942
     2257 C1           16.203700000        12.392400000        15.489200000 C.3     248 pp      -0.086043058
     2258 C2           14.717500000        12.198100000        15.885200000 C.3     248 pp      -0.074342058
     2259 H4           16.473500000        11.676400000        14.714100000 H       248 pp       0.039424942
     2260 H5           16.314100000        13.393300000        15.074100000 H       248 pp       0.039424942
     2261 H6           14.622700000        12.396900000        16.951900000 H       248 pp       0.043757942
     2262 C8           14.224000000        10.760600000        15.638100000 C.3     248 pp      -0.086043058
     2263 H9           14.452000000        10.443200000        14.623700000 H       248 pp       0.039424942
     2264 H10          14.681500000        10.062100000        16.331700000 H       248 pp       0.039424942
     2265 H11          13.151100000        10.719300000        15.793000000 H       248 pp       0.039424942
     2266 C1           13.793100000        13.223000000        15.186000000 C.3     249 pp      -0.086043058
     2267 C2           13.596300000        13.032100000        13.659300000 C.3     249 pp      -0.074342058
     2268 H4           14.213900000        14.212300000        15.362900000 H       249 pp       0.039424942
     2269 H5           12.834700000        13.222300000        15.690800000 H       249 pp       0.039424942
     2270 H6           14.444400000        12.467900000        13.276800000 H       249 pp       0.043757942
     2271 C8           13.705600000        14.407900000        12.988500000 C.3     249 pp      -0.086043058
     2272 H9           13.044200000        15.123300000        13.474500000 H       249 pp       0.039424942
     2273 H10          14.732900000        14.760300000        13.071500000 H       249 pp       0.039424942
     2274 H11          13.456400000        14.336800000        11.930900000 H       249 pp       0.039424942
     2275 C1           12.327600000        12.262400000        13.187300000 C.3     250 pp      -0.086043058
     2276 C2           10.934600000        12.755300000        13.654600000 C.3     250 pp      -0.074342058
     2277 H4           12.428800000        11.219000000        13.473500000 H       250 pp       0.039424942
     2278 H5           12.342400000        12.278000000        12.101800000 H       250 pp       0.039424942
     2279 H6           10.992600000        13.771700000        14.029700000 H       250 pp       0.043757942
     2280 C8           10.403300000        11.852400000        14.789000000 C.3     250 pp      -0.086043058
     2281 H9           10.275100000        10.829700000        14.433200000 H       250 pp       0.039424942
     2282 H10          11.076000000        11.843800000        15.638900000 H       250 pp       0.039424942
     2283 H11           9.440450000        12.219500000        15.139400000 H       250 pp       0.039424942
     2284 C1            9.859680000        12.645700000        12.544000000 C.3     251 pp      -0.086043058
     2285 C2            9.906360000        13.596600000        11.324400000 C.3     251 pp      -0.074342058
     2286 H4            8.893920000        12.806200000        13.017200000 H       251 pp       0.039424942
     2287 H5            9.894510000        11.622900000        12.171900000 H       251 pp       0.039424942
     2288 H6           10.713100000        13.304600000        10.657400000 H       251 pp       0.043757942
     2289 C8           10.108100000        15.063700000        11.732100000 C.3     251 pp      -0.086043058
     2290 H9            9.379450000        15.335800000        12.493600000 H       251 pp       0.039424942
     2291 H10          11.109600000        15.212500000        12.116400000 H       251 pp       0.039424942
     2292 H11           9.985650000        15.720700000        10.871900000 H       251 pp       0.039424942
     2293 C1            8.577810000        13.568600000        10.534800000 C.3     252 pp      -0.086043058
     2294 C2            8.157550000        12.204000000         9.939230000 C.3     252 pp      -0.074342058
     2295 H4            8.696470000        14.251200000         9.694630000 H       252 pp       0.039424942
     2296 H5            7.790350000        13.969100000        11.167800000 H       252 pp       0.039424942
     2297 H6            9.049390000        11.586500000         9.838150000 H       252 pp       0.043757942
     2298 C8            7.627190000        12.425200000         8.512390000 C.3     252 pp      -0.086043058
     2299 H9            6.888270000        13.225100000         8.492980000 H       252 pp       0.039424942
     2300 H10           8.456920000        12.692300000         7.857180000 H       252 pp       0.039424942
     2301 H11           7.169550000        11.512700000         8.135100000 H       252 pp       0.039424942
     2302 C1            7.139010000        11.399800000        10.785500000 C.3     253 pp      -0.086043058
     2303 C2            5.768150000        12.073700000        11.044300000 C.3     253 pp      -0.074342058
     2304 H4            7.593340000        11.166900000        11.743500000 H       253 pp       0.039424942
     2305 H5            6.984400000        10.443200000        10.290300000 H       253 pp       0.039424942
     2306 H6            5.739030000        13.064300000        10.598600000 H       253 pp       0.043757942
     2307 C8            5.585740000        12.226700000        12.567500000 C.3     253 pp      -0.086043058
     2308 H9            5.608820000        11.251800000        13.055500000 H       253 pp       0.039424942
     2309 H10           6.382270000        12.848400000        12.974200000 H       253 pp       0.039424942
     2310 H11           4.637530000        12.708300000        12.796000000 H       253 pp       0.039424942
     2311 C1            4.616930000        11.234800000        10.448900000 C.3     254 pp      -0.086043058
     2312 C2            3.328800000        12.051800000        10.227200000 C.3     254 pp      -0.074342058
     2313 H4            4.406640000        10.410200000        11.128300000 H       254 pp       0.039424942
     2314 H5            4.908470000        10.816900000         9.485250000 H       254 pp       0.039424942
     2315 H6            3.222680000        12.811200000        10.996500000 H       254 pp       0.043757942
     2316 C8            2.131430000        11.097900000        10.341200000 C.3     254 pp      -0.086043058
     2317 H9            2.294980000        10.223700000         9.713590000 H       254 pp       0.039424942
     2318 H10           2.019120000        10.777000000        11.377100000 H       254 pp       0.039424942
     2319 H11           1.215350000        11.598300000        10.030500000 H       254 pp       0.039424942
     2320 C1            3.350410000        12.721300000         8.838820000 C.3     255 pp      -0.086043058
     2321 C2            2.513280000        14.009300000         8.782830000 C.3     255 pp      -0.074342058
     2322 H4            2.955080000        12.021400000         8.106000000 H       255 pp       0.039424942
     2323 H5            4.371250000        12.966200000         8.553570000 H       255 pp       0.039424942
     2324 H6            2.226460000        14.186500000         7.746380000 H       255 pp       0.043757942
     2325 H7            1.609190000        13.904400000         9.381070000 H       255 pp       0.043757942
     2326 C8            3.308700000        15.227200000         9.271130000 C.3     255 pp      -0.086043058
     2327 H9            2.667740000        16.107800000         9.230780000 H       255 pp       0.039424942
     2328 H10           3.643840000        15.079200000        10.296800000 H       255 pp       0.039424942
     2329 H11           4.173050000        15.389000000         8.626880000 H       255 pp       0.039424942
     2330 C1            8.745380000        19.593000000        11.472700000 C.3     256 pp      -0.086043058
     2331 C2            9.698240000        20.040900000        12.593600000 C.3     256 pp      -0.074342058
     2332 H3            7.797390000        19.254700000        11.887500000 H       256 pp       0.039424942
     2333 H4            8.551440000        20.431800000        10.805200000 H       256 pp       0.039424942
     2334 H5            9.193480000        18.780900000        10.899900000 H       256 pp       0.039424942
     2335 H6            9.282720000        20.916200000        13.089500000 H       256 pp       0.043757942
     2336 C8           11.045900000        20.425900000        11.966700000 C.3     256 pp      -0.086043058
     2337 H9           11.516400000        19.546200000        11.527000000 H       256 pp       0.039424942
     2338 H10          10.891600000        21.174800000        11.191200000 H       256 pp       0.039424942
     2339 H11          11.705700000        20.842500000        12.727000000 H       256 pp       0.039424942
     2340 C1            9.927400000        18.916200000        13.618300000 C.3     257 pp      -0.086043058
     2341 C2            8.815170000        18.828200000        14.686700000 C.3     257 pp      -0.074342058
     2342 H4           10.878100000        19.095100000        14.116200000 H       257 pp       0.039424942
     2343 H5            9.992570000        17.979700000        13.069100000 H       257 pp       0.039424942
     2344 H6            7.901670000        19.214100000        14.239100000 H       257 pp       0.043757942
     2345 C8            9.107050000        19.739500000        15.890000000 C.3     257 pp      -0.086043058
     2346 H9           10.026400000        19.441600000        16.389800000 H       257 pp       0.039424942
     2347 H10           9.204610000        20.771100000        15.553800000 H       257 pp       0.039424942
     2348 H11           8.281160000        19.680700000        16.598800000 H       257 pp       0.039424942
     2349 C1            8.463640000        17.385200000        15.121700000 C.3     258 pp      -0.086043058
     2350 C2            9.409590000        16.635900000        16.101500000 C.3     258 pp      -0.074342058
     2351 H4            8.315530000        16.774500000        14.232500000 H       258 pp       0.039424942
     2352 H5            7.494260000        17.488600000        15.600000000 H       258 pp       0.039424942
     2353 H6            9.514500000        17.202900000        17.022900000 H       258 pp       0.043757942
     2354 C8           10.816800000        16.449900000        15.510100000 C.3     258 pp      -0.086043058
     2355 H9           11.350700000        15.651200000        16.019300000 H       258 pp       0.039424942
     2356 H10          10.749200000        16.193300000        14.458100000 H       258 pp       0.039424942
     2357 H11          11.389800000        17.366900000        15.626400000 H       258 pp       0.039424942
     2358 C1            8.885700000        15.223600000        16.462800000 C.3     259 pp      -0.086043058
     2359 C2            7.495080000        15.151700000        17.130400000 C.3     259 pp      -0.074342058
     2360 H4            9.598200000        14.768000000        17.147000000 H       259 pp       0.039424942
     2361 H5            8.854970000        14.630900000        15.549900000 H       259 pp       0.039424942
     2362 H6            6.764930000        15.519200000        16.413200000 H       259 pp       0.043757942
     2363 C8            7.372750000        16.068500000        18.360000000 C.3     259 pp      -0.086043058
     2364 H9            8.265890000        16.017500000        18.977200000 H       259 pp       0.039424942
     2365 H10           7.231880000        17.099200000        18.037700000 H       259 pp       0.039424942
     2366 H11           6.506880000        15.780100000        18.947500000 H       259 pp       0.039424942
     2367 C1            7.026740000        13.697000000        17.382000000 C.3     260 pp      -0.086043058
     2368 C2            7.902990000        12.681700000        18.164200000 C.3     260 pp      -0.074342058
     2369 H4            6.873220000        13.279900000        16.387100000 H       260 pp       0.039424942
     2370 H5            6.048580000        13.738800000        17.857500000 H       260 pp       0.039424942
     2371 H6            8.813360000        12.493300000        17.601100000 H       260 pp       0.043757942
     2372 C8            7.092830000        11.370200000        18.182400000 C.3     260 pp      -0.086043058
     2373 H9            6.247370000        11.462100000        18.864900000 H       260 pp       0.039424942
     2374 H10           6.717150000        11.144000000        17.185200000 H       260 pp       0.039424942
     2375 H11           7.719510000        10.535600000        18.490200000 H       260 pp       0.039424942
     2376 C1            8.274780000        13.166700000        19.589300000 C.3     261 pp      -0.086043058
     2377 C2            8.739140000        12.114300000        20.623100000 C.3     261 pp      -0.074342058
     2378 H4            7.393700000        13.647700000        20.010300000 H       261 pp       0.039424942
     2379 H5            9.064480000        13.908000000        19.501100000 H       261 pp       0.039424942
     2380 H6            7.966900000        11.355000000        20.707400000 H       261 pp       0.043757942
     2381 C8            8.772030000        12.768100000        22.011700000 C.3     261 pp      -0.086043058
     2382 H9            9.226650000        13.753700000        21.956500000 H       261 pp       0.039424942
     2383 H10           7.751340000        12.876300000        22.377800000 H       261 pp       0.039424942
     2384 H11           9.330120000        12.144400000        22.708800000 H       261 pp       0.039424942
     2385 C1           10.055100000        11.365800000        20.298000000 C.3     262 pp      -0.086043058
     2386 C2           11.388100000        12.154700000        20.348500000 C.3     262 pp      -0.074342058
     2387 H4            9.960270000        10.918600000        19.312600000 H       262 pp       0.039424942
     2388 H5           10.114300000        10.542900000        21.009000000 H       262 pp       0.039424942
     2389 H6           11.240800000        13.110400000        20.840000000 H       262 pp       0.043757942
     2390 C8           11.854600000        12.429900000        18.905400000 C.3     262 pp      -0.086043058
     2391 H9           12.103000000        11.498400000        18.400000000 H       262 pp       0.039424942
     2392 H10          11.064400000        12.931000000        18.353100000 H       262 pp       0.039424942
     2393 H11          12.723500000        13.084100000        18.895400000 H       262 pp       0.039424942
     2394 C1           12.407400000        11.336100000        21.184500000 C.3     263 pp      -0.086043058
     2395 C2           13.846800000        11.902700000        21.241700000 C.3     263 pp      -0.074342058
     2396 H4           12.452500000        10.317800000        20.799500000 H       263 pp       0.039424942
     2397 H5           12.021800000        11.287800000        22.202100000 H       263 pp       0.039424942
     2398 H6           13.833700000        12.928200000        20.891900000 H       263 pp       0.043757942
     2399 C8           14.741700000        11.055800000        20.320900000 C.3     263 pp      -0.086043058
     2400 H9           14.930100000        10.079900000        20.768400000 H       263 pp       0.039424942
     2401 H10          14.263400000        10.914300000        19.354400000 H       263 pp       0.039424942
     2402 H11          15.689400000        11.559700000        20.154800000 H       263 pp       0.039424942
     2403 C1           14.383800000        11.881300000        22.694100000 C.3     264 pp      -0.086043058
     2404 C2           15.810000000        12.450200000        22.921100000 C.3     264 pp      -0.074342058
     2405 H4           14.376000000        10.845600000        23.029900000 H       264 pp       0.039424942
     2406 H5           13.697100000        12.444200000        23.326900000 H       264 pp       0.039424942
     2407 H6           16.541700000        11.872900000        22.359700000 H       264 pp       0.043757942
     2408 C8           16.164000000        12.270000000        24.404600000 C.3     264 pp      -0.086043058
     2409 H9           16.093200000        11.219200000        24.673200000 H       264 pp       0.039424942
     2410 H10          17.187700000        12.600500000        24.583800000 H       264 pp       0.039424942
     2411 H11          15.480300000        12.843800000        25.031000000 H       264 pp       0.039424942
     2412 C1           15.905800000        13.959900000        22.603800000 C.3     265 pp      -0.086043058
     2413 C2           16.779600000        14.333100000        21.384200000 C.3     265 pp      -0.074342058
     2414 H4           16.300500000        14.482700000        23.472700000 H       265 pp       0.039424942
     2415 H5           14.897100000        14.314500000        22.445500000 H       265 pp       0.039424942
     2416 H6           16.978100000        13.428900000        20.817300000 H       265 pp       0.043757942
     2417 C8           18.158200000        14.860600000        21.811300000 C.3     265 pp      -0.086043058
     2418 H9           18.075000000        15.770900000        22.401000000 H       265 pp       0.039424942
     2419 H10          18.663900000        14.098500000        22.404300000 H       265 pp       0.039424942
     2420 H11          18.755100000        15.067500000        20.924700000 H       265 pp       0.039424942
     2421 C1           16.061500000        15.263100000        20.380900000 C.3     266 pp      -0.086043058
     2422 C2           15.816100000        16.757900000        20.728300000 C.3     266 pp      -0.074342058
     2423 H4           15.127300000        14.780200000        20.116900000 H       266 pp       0.039424942
     2424 H5           16.671000000        15.258600000        19.477100000 H       266 pp       0.039424942
     2425 H6           16.776400000        17.261900000        20.620400000 H       266 pp       0.043757942
     2426 C8           15.312900000        17.105100000        22.140300000 C.3     266 pp      -0.086043058
     2427 H9           14.447700000        16.518100000        22.423200000 H       266 pp       0.039424942
     2428 H10          16.107400000        16.960800000        22.866600000 H       266 pp       0.039424942
     2429 H11          15.022500000        18.149000000        22.162900000 H       266 pp       0.039424942
     2430 C1           14.877600000        17.395400000        19.679400000 C.3     267 pp      -0.086043058
     2431 C2           13.409100000        16.907500000        19.711100000 C.3     267 pp      -0.074342058
     2432 H4           15.296500000        17.182300000        18.699800000 H       267 pp       0.039424942
     2433 H5           14.897700000        18.477100000        19.806700000 H       267 pp       0.039424942
     2434 H6           13.314600000        16.091800000        20.413300000 H       267 pp       0.043757942
     2435 C8           13.044900000        16.361100000        18.323400000 C.3     267 pp      -0.086043058
     2436 H9           13.064100000        17.166100000        17.588900000 H       267 pp       0.039424942
     2437 H10          13.750900000        15.584600000        18.027900000 H       267 pp       0.039424942
     2438 H11          12.053700000        15.914500000        18.352000000 H       267 pp       0.039424942
     2439 C1           12.463300000        18.050600000        20.145200000 C.3     268 pp      -0.086043058
     2440 C2           10.972600000        17.672800000        20.339400000 C.3     268 pp      -0.074342058
     2441 H4           12.507900000        18.828000000        19.382000000 H       268 pp       0.039424942
     2442 H5           12.835400000        18.481600000        21.071800000 H       268 pp       0.039424942
     2443 H6           10.565100000        17.450500000        19.355500000 H       268 pp       0.043757942
     2444 C8           10.206900000        18.912700000        20.825300000 C.3     268 pp      -0.086043058
     2445 H9           10.565100000        19.228500000        21.803300000 H       268 pp       0.039424942
     2446 H10          10.348300000        19.728300000        20.116200000 H       268 pp       0.039424942
     2447 H11           9.142360000        18.687200000        20.886200000 H       268 pp       0.039424942
     2448 C1           10.662500000        16.439400000        21.227500000 C.3     269 pp      -0.086043058
     2449 C2           11.168300000        16.484900000        22.691900000 C.3     269 pp      -0.074342058
     2450 H4           11.057900000        15.560600000        20.727200000 H       269 pp       0.039424942
     2451 H5            9.581650000        16.307100000        21.243400000 H       269 pp       0.039424942
     2452 H6           11.869200000        17.305200000        22.821500000 H       269 pp       0.043757942
     2453 C8           11.895900000        15.175200000        23.061000000 C.3     269 pp      -0.086043058
     2454 H9           11.185100000        14.373000000        23.247100000 H       269 pp       0.039424942
     2455 H10          12.562900000        14.866300000        22.263000000 H       269 pp       0.039424942
     2456 H11          12.500900000        15.323600000        23.953800000 H       269 pp       0.039424942
     2457 C1            9.974190000        16.704000000        23.642900000 C.3     270 pp      -0.086043058
     2458 C2           10.410900000        17.138900000        25.047500000 C.3     270 pp      -0.074342058
     2459 H4            9.387380000        15.789100000        23.712300000 H       270 pp       0.039424942
     2460 H5            9.338080000        17.495400000        23.250700000 H       270 pp       0.039424942
     2461 H6           11.188900000        16.489200000        25.441000000 H       270 pp       0.043757942
     2462 H7           10.781800000        18.161800000        24.999400000 H       270 pp       0.043757942
     2463 C8            9.223450000        17.078600000        26.009300000 C.3     270 pp      -0.086043058
     2464 H9            8.415530000        17.713900000        25.648700000 H       270 pp       0.039424942
     2465 H10           8.871880000        16.052700000        26.094200000 H       270 pp       0.039424942
     2466 H11           9.547800000        17.420400000        26.989600000 H       270 pp       0.039424942
     2467 C1           33.175700000        35.850200000        18.327500000 C.3     271 pp      -0.086043058
     2468 C2           33.058500000        34.932900000        19.550600000 C.3     271 pp      -0.074342058
     2469 H3           32.864100000        35.316800000        17.429300000 H       271 pp       0.039424942
     2470 H4           32.542200000        36.726000000        18.468000000 H       271 pp       0.039424942
     2471 H5           34.208600000        36.177700000        18.211100000 H       271 pp       0.039424942
     2472 H6           33.278800000        35.521300000        20.440400000 H       271 pp       0.043757942
     2473 C8           34.096600000        33.805600000        19.437100000 C.3     271 pp      -0.086043058
     2474 H9           33.971700000        33.271800000        18.494800000 H       271 pp       0.039424942
     2475 H10          35.099200000        34.231600000        19.473400000 H       271 pp       0.039424942
     2476 H11          33.984900000        33.104800000        20.263500000 H       271 pp       0.039424942
     2477 C1           31.629800000        34.360500000        19.628600000 C.3     272 pp      -0.086043058
     2478 C2           31.196100000        34.058800000        21.075700000 C.3     272 pp      -0.074342058
     2479 H4           31.599100000        33.441100000        19.044900000 H       272 pp       0.039424942
     2480 H5           30.921800000        35.060100000        19.183800000 H       272 pp       0.039424942
     2481 H6           32.031300000        33.609600000        21.605000000 H       272 pp       0.043757942
     2482 C8           30.046900000        33.037600000        21.028400000 C.3     272 pp      -0.086043058
     2483 H9           29.244200000        33.407800000        20.390300000 H       272 pp       0.039424942
     2484 H10          30.413000000        32.092400000        20.627600000 H       272 pp       0.039424942
     2485 H11          29.656300000        32.857200000        22.028500000 H       272 pp       0.039424942
     2486 C1           30.738400000        35.343900000        21.800500000 C.3     273 pp      -0.086043058
     2487 C2           31.333200000        35.507000000        23.218000000 C.3     273 pp      -0.074342058
     2488 H4           29.652600000        35.340000000        21.842900000 H       273 pp       0.039424942
     2489 H5           31.049100000        36.209500000        21.218300000 H       273 pp       0.039424942
     2490 H6           32.411000000        35.373200000        23.127000000 H       273 pp       0.043757942
     2491 C8           30.855300000        34.421400000        24.194600000 C.3     273 pp      -0.086043058
     2492 H9           31.095600000        34.703700000        25.217800000 H       273 pp       0.039424942
     2493 H10          29.783700000        34.267800000        24.104500000 H       273 pp       0.039424942
     2494 H11          31.364100000        33.485100000        23.974000000 H       273 pp       0.039424942
     2495 C1           31.169200000        36.945200000        23.772400000 C.3     274 pp      -0.086043058
     2496 C2           29.746900000        37.562000000        23.884700000 C.3     274 pp      -0.074342058
     2497 H4           31.762500000        37.575500000        23.112400000 H       274 pp       0.039424942
     2498 H5           31.649700000        36.991900000        24.749000000 H       274 pp       0.039424942
     2499 H6           29.125300000        37.211100000        23.070100000 H       274 pp       0.043757942
     2500 C8           29.884100000        39.085600000        23.701300000 C.3     274 pp      -0.086043058
     2501 H9           30.456400000        39.510600000        24.526000000 H       274 pp       0.039424942
     2502 H10          30.384500000        39.311800000        22.759700000 H       274 pp       0.039424942
     2503 H11          28.903600000        39.555000000        23.658400000 H       274 pp       0.039424942
     2504 C1           29.089900000        37.210800000        25.247700000 C.3     275 pp      -0.086043058
     2505 C2           27.704500000        37.827200000        25.556700000 C.3     275 pp      -0.074342058
     2506 H4           29.763500000        37.542400000        26.037400000 H       275 pp       0.039424942
     2507 H5           28.993900000        36.133800000        25.332300000 H       275 pp       0.039424942
     2508 H6           27.808700000        38.909900000        25.557000000 H       275 pp       0.043757942
     2509 C8           27.318200000        37.482400000        27.005200000 C.3     275 pp      -0.086043058
     2510 H9           27.434800000        36.417400000        27.201500000 H       275 pp       0.039424942
     2511 H10          27.966200000        38.033200000        27.686900000 H       275 pp       0.039424942
     2512 H11          26.286400000        37.775700000        27.195500000 H       275 pp       0.039424942
     2513 C1           26.559400000        37.505000000        24.564600000 C.3     276 pp      -0.086043058
     2514 C2           26.054600000        36.042100000        24.491800000 C.3     276 pp      -0.074342058
     2515 H4           26.852600000        37.823400000        23.566900000 H       276 pp       0.039424942
     2516 H5           25.727800000        38.141800000        24.862400000 H       276 pp       0.039424942
     2517 H6           26.308600000        35.495900000        25.392200000 H       276 pp       0.043757942
     2518 C8           26.699900000        35.286600000        23.322100000 C.3     276 pp      -0.086043058
     2519 H9           26.387200000        35.709800000        22.368300000 H       276 pp       0.039424942
     2520 H10          27.776800000        35.334700000        23.398700000 H       276 pp       0.039424942
     2521 H11          26.412000000        34.237800000        23.364900000 H       276 pp       0.039424942
     2522 C1           24.531100000        36.007300000        24.240100000 C.3     277 pp      -0.086043058
     2523 C2           23.629400000        36.068400000        25.493700000 C.3     277 pp      -0.074342058
     2524 H4           24.299600000        35.101000000        23.689600000 H       277 pp       0.039424942
     2525 H5           24.289600000        36.856000000        23.604700000 H       277 pp       0.039424942
     2526 H6           23.903100000        36.979100000        26.021100000 H       277 pp       0.043757942
     2527 C8           23.913500000        34.926800000        26.490300000 C.3     277 pp      -0.086043058
     2528 H9           24.150900000        34.003600000        25.963500000 H       277 pp       0.039424942
     2529 H10          24.760000000        35.200000000        27.119000000 H       277 pp       0.039424942
     2530 H11          23.058000000        34.761900000        27.143500000 H       277 pp       0.039424942
     2531 C1           22.114100000        36.239200000        25.170700000 C.3     278 pp      -0.086043058
     2532 C2           21.358900000        35.280700000        24.205300000 C.3     278 pp      -0.074342058
     2533 H4           21.991400000        37.250100000        24.782200000 H       278 pp       0.039424942
     2534 H5           21.573100000        36.214300000        26.115700000 H       278 pp       0.039424942
     2535 H6           20.311800000        35.370300000        24.493500000 H       278 pp       0.043757942
     2536 C8           21.688000000        33.795800000        24.441600000 C.3     278 pp      -0.086043058
     2537 H9           20.941500000        33.167700000        23.970600000 H       278 pp       0.039424942
     2538 H10          22.670000000        33.531500000        24.060300000 H       278 pp       0.039424942
     2539 H11          21.644400000        33.585700000        25.508400000 H       278 pp       0.039424942
     2540 C1           21.408500000        35.838300000        22.755600000 C.3     279 pp      -0.086043058
     2541 C2           21.006100000        34.990500000        21.526100000 C.3     279 pp      -0.074342058
     2542 H4           22.389600000        36.245100000        22.551400000 H       279 pp       0.039424942
     2543 H5           20.729500000        36.687000000        22.751900000 H       279 pp       0.039424942
     2544 H6           20.906900000        35.724000000        20.729000000 H       279 pp       0.043757942
     2545 C8           19.621800000        34.334400000        21.649400000 C.3     279 pp      -0.086043058
     2546 H9           19.684300000        33.358600000        22.122200000 H       279 pp       0.039424942
     2547 H10          18.959100000        34.978700000        22.226100000 H       279 pp       0.039424942
     2548 H11          19.200500000        34.207300000        20.653900000 H       279 pp       0.039424942
     2549 C1           22.136000000        34.036300000        21.085500000 C.3     280 pp      -0.086043058
     2550 C2           21.992500000        33.501100000        19.643800000 C.3     280 pp      -0.074342058
     2551 H4           22.203300000        33.192000000        21.763800000 H       280 pp       0.039424942
     2552 H5           23.064200000        34.599600000        21.146100000 H       280 pp       0.039424942
     2553 H6           21.211700000        34.065400000        19.136200000 H       280 pp       0.043757942
     2554 C8           21.538200000        32.033500000        19.644000000 C.3     280 pp      -0.086043058
     2555 H9           22.260300000        31.402000000        20.155700000 H       280 pp       0.039424942
     2556 H10          20.574400000        31.945500000        20.143200000 H       280 pp       0.039424942
     2557 H11          21.428000000        31.689700000        18.617400000 H       280 pp       0.039424942
     2558 C1           23.272500000        33.709400000        18.800400000 C.3     281 pp      -0.086043058
     2559 C2           24.596700000        33.132600000        19.360700000 C.3     281 pp      -0.074342058
     2560 H4           23.384500000        34.784300000        18.662700000 H       281 pp       0.039424942
     2561 H5           23.098800000        33.280000000        17.816300000 H       281 pp       0.039424942
     2562 H6           24.473600000        32.918200000        20.409900000 H       281 pp       0.043757942
     2563 C8           25.686200000        34.216800000        19.246700000 C.3     281 pp      -0.086043058
     2564 H9           25.375600000        35.107500000        19.792400000 H       281 pp       0.039424942
     2565 H10          26.621100000        33.876600000        19.683900000 H       281 pp       0.039424942
     2566 H11          25.859400000        34.477400000        18.204900000 H       281 pp       0.039424942
     2567 C1           24.977400000        31.834300000        18.607200000 C.3     282 pp      -0.086043058
     2568 C2           26.145600000        30.995300000        19.190100000 C.3     282 pp      -0.074342058
     2569 H4           25.235800000        32.120800000        17.589600000 H       282 pp       0.039424942
     2570 H5           24.104100000        31.189600000        18.549300000 H       282 pp       0.039424942
     2571 H6           26.914700000        31.632300000        19.613900000 H       282 pp       0.043757942
     2572 C8           26.813700000        30.261300000        18.016100000 C.3     282 pp      -0.086043058
     2573 H9           26.079900000        29.654900000        17.485400000 H       282 pp       0.039424942
     2574 H10          27.250600000        30.985100000        17.329400000 H       282 pp       0.039424942
     2575 H11          27.614700000        29.618100000        18.379700000 H       282 pp       0.039424942
     2576 C1           25.719500000        29.920400000        20.223400000 C.3     283 pp      -0.086043058
     2577 C2           25.211900000        30.434300000        21.586500000 C.3     283 pp      -0.074342058
     2578 H4           26.577500000        29.280000000        20.426100000 H       283 pp       0.039424942
     2579 H5           24.941200000        29.303200000        19.774100000 H       283 pp       0.039424942
     2580 H6           24.277500000        30.961900000        21.434700000 H       283 pp       0.043757942
     2581 C8           26.233600000        31.358600000        22.272900000 C.3     283 pp      -0.086043058
     2582 H9           27.223700000        30.911300000        22.228600000 H       283 pp       0.039424942
     2583 H10          26.269000000        32.326400000        21.782400000 H       283 pp       0.039424942
     2584 H11          25.958100000        31.519000000        23.314200000 H       283 pp       0.039424942
     2585 C1           24.928500000        29.249000000        22.526800000 C.3     284 pp      -0.086043058
     2586 C2           23.760500000        29.572900000        23.477400000 C.3     284 pp      -0.074342058
     2587 H4           25.823400000        29.042400000        23.110000000 H       284 pp       0.039424942
     2588 H5           24.688300000        28.353400000        21.954100000 H       284 pp       0.039424942
     2589 H6           23.726100000        30.642900000        23.679000000 H       284 pp       0.043757942
     2590 C8           23.985300000        28.855000000        24.814600000 C.3     284 pp      -0.086043058
     2591 H9           24.195000000        27.802100000        24.639300000 H       284 pp       0.039424942
     2592 H10          24.831000000        29.307600000        25.331600000 H       284 pp       0.039424942
     2593 H11          23.102000000        28.946500000        25.445600000 H       284 pp       0.039424942
     2594 C1           22.425800000        29.130400000        22.854100000 C.3     285 pp      -0.086043058
     2595 C2           21.290300000        30.069200000        23.272400000 C.3     285 pp      -0.074342058
     2596 H4           22.199900000        28.119300000        23.182700000 H       285 pp       0.039424942
     2597 H5           22.488900000        29.145100000        21.766200000 H       285 pp       0.039424942
     2598 H6           21.320400000        30.241800000        24.345700000 H       285 pp       0.043757942
     2599 H7           21.404000000        31.018400000        22.753400000 H       285 pp       0.043757942
     2600 C8           19.934400000        29.464700000        22.902600000 C.3     285 pp      -0.086043058
     2601 H9           19.879000000        29.314800000        21.824500000 H       285 pp       0.039424942
     2602 H10          19.795700000        28.512100000        23.414200000 H       285 pp       0.039424942
     2603 H11          19.150400000        30.152400000        23.212400000 H       285 pp       0.039424942
     2604 C1           36.043300000        12.848900000        19.088100000 C.3     286 pp      -0.086043058
     2605 C2           35.778100000        12.269800000        20.485700000 C.3     286 pp      -0.074342058
     2606 H3           35.470100000        13.764100000        18.951000000 H       286 pp       0.039424942
     2607 H4           37.103600000        13.079900000        18.986700000 H       286 pp       0.039424942
     2608 H5           35.761200000        12.129400000        18.319100000 H       286 pp       0.039424942
     2609 H6           36.201400000        12.946000000        21.223900000 H       286 pp       0.043757942
     2610 C8           36.496400000        10.921500000        20.619500000 C.3     286 pp      -0.086043058
     2611 H9           36.052500000        10.192200000        19.943100000 H       286 pp       0.039424942
     2612 H10          37.551400000        11.044000000        20.375100000 H       286 pp       0.039424942
     2613 H11          36.413600000        10.561400000        21.645200000 H       286 pp       0.039424942
     2614 C1           34.265100000        12.084800000        20.717500000 C.3     287 pp      -0.086043058
     2615 C2           33.603100000        13.296600000        21.403500000 C.3     287 pp      -0.074342058
     2616 H4           34.094400000        11.195200000        21.322500000 H       287 pp       0.039424942
     2617 H5           33.805600000        11.937200000        19.744600000 H       287 pp       0.039424942
     2618 H6           34.076700000        14.196000000        21.013400000 H       287 pp       0.043757942
     2619 C8           33.834900000        13.290600000        22.923900000 C.3     287 pp      -0.086043058
     2620 H9           33.417400000        14.197200000        23.357100000 H       287 pp       0.039424942
     2621 H10          33.375800000        12.421900000        23.390000000 H       287 pp       0.039424942
     2622 H11          34.897800000        13.272900000        23.138000000 H       287 pp       0.039424942
     2623 C1           32.099600000        13.432200000        21.072400000 C.3     288 pp      -0.086043058
     2624 C2           31.185900000        12.228000000        21.409200000 C.3     288 pp      -0.074342058
     2625 H4           32.012600000        13.634300000        20.008300000 H       288 pp       0.039424942
     2626 H5           31.737100000        14.317500000        21.591200000 H       288 pp       0.039424942
     2627 H6           31.715800000        11.486600000        21.998500000 H       288 pp       0.043757942
     2628 C8           30.741600000        11.543800000        20.106700000 C.3     288 pp      -0.086043058
     2629 H9           30.134600000        12.223800000        19.513300000 H       288 pp       0.039424942
     2630 H10          31.606800000        11.244400000        19.522600000 H       288 pp       0.039424942
     2631 H11          30.157900000        10.652800000        20.336700000 H       288 pp       0.039424942
     2632 C1           29.904300000        12.683600000        22.142900000 C.3     289 pp      -0.086043058
     2633 C2           30.098400000        13.022500000        23.638600000 C.3     289 pp      -0.074342058
     2634 H4           29.151000000        11.900000000        22.070900000 H       289 pp       0.039424942
     2635 H5           29.523400000        13.556400000        21.613900000 H       289 pp       0.039424942
     2636 H6           30.974500000        13.651900000        23.749800000 H       289 pp       0.043757942
     2637 C8           30.302300000        11.750900000        24.484200000 C.3     289 pp      -0.086043058
     2638 H9           29.514100000        11.026100000        24.279900000 H       289 pp       0.039424942
     2639 H10          31.266100000        11.297300000        24.264300000 H       289 pp       0.039424942
     2640 H11          30.283100000        12.002000000        25.543900000 H       289 pp       0.039424942
     2641 C1           28.866000000        13.778600000        24.179400000 C.3     290 pp      -0.086043058
     2642 C2           29.232800000        14.790000000        25.283000000 C.3     290 pp      -0.074342058
     2643 H4           28.163400000        13.046300000        24.575200000 H       290 pp       0.039424942
     2644 H5           28.360900000        14.320200000        23.383200000 H       290 pp       0.039424942
     2645 H6           30.031400000        14.385800000        25.901400000 H       290 pp       0.043757942
     2646 C8           28.001900000        14.986600000        26.178500000 C.3     290 pp      -0.086043058
     2647 H9           27.140600000        15.283000000        25.579200000 H       290 pp       0.039424942
     2648 H10          27.774000000        14.056400000        26.699200000 H       290 pp       0.039424942
     2649 H11          28.205500000        15.753100000        26.920800000 H       290 pp       0.039424942
     2650 C1           29.662100000        16.138900000        24.661300000 C.3     291 pp      -0.086043058
     2651 C2           30.611400000        16.962000000        25.559000000 C.3     291 pp      -0.074342058
     2652 H4           28.763500000        16.725400000        24.473400000 H       291 pp       0.039424942
     2653 H5           30.150200000        15.970400000        23.701400000 H       291 pp       0.039424942
     2654 H6           30.207100000        17.008100000        26.568100000 H       291 pp       0.043757942
     2655 C8           30.668500000        18.397500000        25.013200000 C.3     291 pp      -0.086043058
     2656 H9           30.954200000        18.387400000        23.962600000 H       291 pp       0.039424942
     2657 H10          29.690700000        18.863900000        25.112200000 H       291 pp       0.039424942
     2658 H11          31.388100000        18.991400000        25.575000000 H       291 pp       0.039424942
     2659 C1           32.035200000        16.362900000        25.575800000 C.3     292 pp      -0.086043058
     2660 C2           32.563700000        16.050700000        26.991900000 C.3     292 pp      -0.074342058
     2661 H4           32.723100000        17.046400000        25.078900000 H       292 pp       0.039424942
     2662 H5           32.030900000        15.440000000        25.005000000 H       292 pp       0.039424942
     2663 H6           31.763900000        15.602000000        27.579000000 H       292 pp       0.043757942
     2664 C8           33.030200000        17.354600000        27.663000000 C.3     292 pp      -0.086043058
     2665 H9           33.876700000        17.771300000        27.117800000 H       292 pp       0.039424942
     2666 H10          32.220000000        18.080600000        27.674500000 H       292 pp       0.039424942
     2667 H11          33.320300000        17.169800000        28.694300000 H       292 pp       0.039424942
     2668 C1           33.706200000        15.021200000        26.835100000 C.3     293 pp      -0.086043058
     2669 C2           34.568700000        14.690100000        28.076800000 C.3     293 pp      -0.074342058
     2670 H4           34.367700000        15.407500000        26.060400000 H       293 pp       0.039424942
     2671 H5           33.274300000        14.085300000        26.479200000 H       293 pp       0.039424942
     2672 H6           35.102100000        15.585700000        28.388000000 H       293 pp       0.043757942
     2673 C8           35.617100000        13.651500000        27.626900000 C.3     293 pp      -0.086043058
     2674 H9           35.191500000        12.648600000        27.628200000 H       293 pp       0.039424942
     2675 H10          35.959800000        13.873800000        26.621500000 H       293 pp       0.039424942
     2676 H11          36.486000000        13.676100000        28.282300000 H       293 pp       0.039424942
     2677 C1           33.739500000        14.131500000        29.259300000 C.3     294 pp      -0.086043058
     2678 C2           34.545100000        14.010800000        30.571000000 C.3     294 pp      -0.074342058
     2679 H4           33.357100000        13.150400000        28.980100000 H       294 pp       0.039424942
     2680 H5           32.881400000        14.768600000        29.459400000 H       294 pp       0.039424942
     2681 H6           35.585400000        13.787900000        30.356400000 H       294 pp       0.043757942
     2682 C8           33.983300000        12.841200000        31.392300000 C.3     294 pp      -0.086043058
     2683 H9           32.906200000        12.953700000        31.519400000 H       294 pp       0.039424942
     2684 H10          34.187900000        11.902400000        30.877100000 H       294 pp       0.039424942
     2685 H11          34.460000000        12.810900000        32.371800000 H       294 pp       0.039424942
     2686 C1           34.461800000        15.305900000        31.403700000 C.3     295 pp      -0.086043058
     2687 C2           35.752600000        15.554200000        32.207900000 C.3     295 pp      -0.074342058
     2688 H4           33.615600000        15.225400000        32.085100000 H       295 pp       0.039424942
     2689 H5           34.288400000        16.164400000        30.757300000 H       295 pp       0.039424942
     2690 H6           36.232400000        14.603200000        32.435200000 H       295 pp       0.043757942
     2691 C8           35.388500000        16.240500000        33.533200000 C.3     295 pp      -0.086043058
     2692 H9           34.792000000        17.133000000        33.342100000 H       295 pp       0.039424942
     2693 H10          34.815300000        15.552100000        34.154700000 H       295 pp       0.039424942
     2694 H11          36.292100000        16.522700000        34.071900000 H       295 pp       0.039424942
     2695 C1           36.699900000        16.452100000        31.387900000 C.3     296 pp      -0.086043058
     2696 C2           38.176500000        16.334200000        31.820600000 C.3     296 pp      -0.074342058
     2697 H4           36.365900000        17.482900000        31.491500000 H       296 pp       0.039424942
     2698 H5           36.624100000        16.187100000        30.335100000 H       296 pp       0.039424942
     2699 H6           38.234400000        15.768000000        32.746400000 H       296 pp       0.043757942
     2700 C8           38.736600000        17.740200000        32.099500000 C.3     296 pp      -0.086043058
     2701 H9           38.770700000        18.325100000        31.180800000 H       296 pp       0.039424942
     2702 H10          38.107700000        18.250800000        32.829100000 H       296 pp       0.039424942
     2703 H11          39.738700000        17.671200000        32.518100000 H       296 pp       0.039424942
     2704 C1           38.961700000        15.607700000        30.702700000 C.3     297 pp      -0.086043058
     2705 C2           40.402808000        15.184500000        31.064300000 C.3     297 pp      -0.074342058
     2706 H4           39.020100000        16.274500000        29.842500000 H       297 pp       0.039424942
     2707 H5           38.409800000        14.721200000        30.392600000 H       297 pp       0.039424942
     2708 H6           40.948590000        16.077400000        31.360400000 H       297 pp       0.043757942
     2709 C8           41.118340000        14.715500000        29.787100000 C.3     297 pp      -0.086043058
     2710 H9           40.489275000        14.041800000        29.210500000 H       297 pp       0.039424942
     2711 H10          41.339390000        15.587300000        29.171200000 H       297 pp       0.039424942
     2712 H11          42.058260000        14.222600000        30.032600000 H       297 pp       0.039424942
     2713 C1           40.547125000        14.201100000        32.255000000 C.3     298 pp      -0.086043058
     2714 C2           39.571000000        12.999600000        32.385600000 C.3     298 pp      -0.074342058
     2715 H4           40.416864000        14.810300000        33.147900000 H       298 pp       0.039424942
     2716 H5           41.574280000        13.847200000        32.288700000 H       298 pp       0.039424942
     2717 H6           38.553400000        13.366000000        32.285400000 H       298 pp       0.043757942
     2718 C8           39.650800000        12.464300000        33.824300000 C.3     298 pp      -0.086043058
     2719 H9           40.663824000        12.138900000        34.058800000 H       298 pp       0.039424942
     2720 H10          39.359300000        13.246300000        34.525300000 H       298 pp       0.039424942
     2721 H11          38.959400000        11.631300000        33.944900000 H       298 pp       0.039424942
     2722 C1           39.722000000        11.861800000        31.344800000 C.3     299 pp      -0.086043058
     2723 C2           41.042560000        11.056000000        31.373900000 C.3     299 pp      -0.074342058
     2724 H4           39.594100000        12.293600000        30.358300000 H       299 pp       0.039424942
     2725 H5           38.890400000        11.170100000        31.477400000 H       299 pp       0.039424942
     2726 H6           41.827570000        11.632300000        31.854300000 H       299 pp       0.043757942
     2727 C8           41.489220000        10.778100000        29.929800000 C.3     299 pp      -0.086043058
     2728 H9           40.700404000        10.262700000        29.380800000 H       299 pp       0.039424942
     2729 H10          41.722350000        11.715000000        29.426300000 H       299 pp       0.039424942
     2730 H11          42.385780000        10.161900000        29.933100000 H       299 pp       0.039424942
     2731 C1           40.871180000         9.715810000        32.120100000 C.3     300 pp      -0.086043058
     2732 C2           42.178700000         9.262700000        32.787300000 C.3     300 pp      -0.074342058
     2733 H4           40.534416000         8.949480000        31.422200000 H       300 pp       0.039424942
     2734 H5           40.124652000         9.814210000        32.903700000 H       300 pp       0.039424942
     2735 H6           42.942180000         9.071170000        32.034600000 H       300 pp       0.043757942
     2736 H7           42.532580000        10.034000000        33.471400000 H       300 pp       0.043757942
     2737 C8           41.935600000         7.981190000        33.590500000 C.3     300 pp      -0.086043058
     2738 H9           41.209290000         8.170660000        34.380800000 H       300 pp       0.039424942
     2739 H10          41.560760000         7.196680000        32.933600000 H       300 pp       0.039424942
     2740 H11          42.873280000         7.658080000        34.040400000 H       300 pp       0.039424942
     2741 C1           26.352000000        24.034900000        22.898300000 C.3     301 pp      -0.086043058
     2742 C2           25.223400000        24.794500000        23.606400000 C.3     301 pp      -0.074342058
     2743 H3           26.120200000        23.929400000        21.838900000 H       301 pp       0.039424942
     2744 H4           27.284500000        24.590300000        22.999200000 H       301 pp       0.039424942
     2745 H5           26.471800000        23.047800000        23.342200000 H       301 pp       0.039424942
     2746 H6           25.082300000        25.743100000        23.091300000 H       301 pp       0.043757942
     2747 C8           25.642800000        25.075200000        25.056600000 C.3     301 pp      -0.086043058
     2748 H9           25.957900000        24.151800000        25.543200000 H       301 pp       0.039424942
     2749 H10          26.471900000        25.781200000        25.061800000 H       301 pp       0.039424942
     2750 H11          24.810300000        25.505900000        25.611900000 H       301 pp       0.039424942
     2751 C1           23.922700000        23.969500000        23.580200000 C.3     302 pp      -0.086043058
     2752 C2           22.666000000        24.860600000        23.475500000 C.3     302 pp      -0.074342058
     2753 H4           23.868300000        23.391100000        24.502300000 H       302 pp       0.039424942
     2754 H5           23.953600000        23.264000000        22.754500000 H       302 pp       0.039424942
     2755 H6           22.845700000        25.759300000        24.061500000 H       302 pp       0.043757942
     2756 C8           21.475900000        24.166500000        24.151300000 C.3     302 pp      -0.086043058
     2757 H9           20.550500000        24.689500000        23.912600000 H       302 pp       0.039424942
     2758 H10          21.406300000        23.135000000        23.820700000 H       302 pp       0.039424942
     2759 H11          21.618500000        24.180600000        25.231900000 H       302 pp       0.039424942
     2760 C1           22.324100000        25.331800000        22.040800000 C.3     303 pp      -0.086043058
     2761 C2           21.950500000        24.233800000        21.017200000 C.3     303 pp      -0.074342058
     2762 H4           23.167800000        25.899100000        21.652000000 H       303 pp       0.039424942
     2763 H5           21.487300000        26.021600000        22.127800000 H       303 pp       0.039424942
     2764 H6           21.912700000        23.273800000        21.522600000 H       303 pp       0.043757942
     2765 C8           23.034400000        24.099800000        19.934000000 C.3     303 pp      -0.086043058
     2766 H9           23.191700000        25.043400000        19.413000000 H       303 pp       0.039424942
     2767 H10          23.974000000        23.794800000        20.390300000 H       303 pp       0.039424942
     2768 H11          22.737000000        23.335000000        19.217000000 H       303 pp       0.039424942
     2769 C1           20.540600000        24.444900000        20.418700000 C.3     304 pp      -0.086043058
     2770 C2           20.355900000        25.695600000        19.524800000 C.3     304 pp      -0.074342058
     2771 H4           19.839400000        24.504500000        21.250600000 H       304 pp       0.039424942
     2772 H5           20.286500000        23.552700000        19.852800000 H       304 pp       0.039424942
     2773 H6           21.169600000        26.390700000        19.723700000 H       304 pp       0.043757942
     2774 C8           19.069800000        26.444500000        19.912200000 C.3     304 pp      -0.086043058
     2775 H9           18.208700000        25.778700000        19.902700000 H       304 pp       0.039424942
     2776 H10          19.182500000        26.856500000        20.914800000 H       304 pp       0.039424942
     2777 H11          18.898000000        27.266000000        19.217100000 H       304 pp       0.039424942
     2778 C1           20.410200000        25.398100000        18.008200000 C.3     305 pp      -0.086043058
     2779 C2           19.270700000        24.532800000        17.417900000 C.3     305 pp      -0.074342058
     2780 H4           21.359200000        24.917100000        17.788000000 H       305 pp       0.039424942
     2781 H5           20.430500000        26.356500000        17.498000000 H       305 pp       0.039424942
     2782 H6           18.588900000        24.223200000        18.203100000 H       305 pp       0.043757942
     2783 C8           19.899000000        23.266400000        16.802000000 C.3     305 pp      -0.086043058
     2784 H9           20.572400000        23.532400000        15.986500000 H       305 pp       0.039424942
     2785 H10          20.458900000        22.721100000        17.561200000 H       305 pp       0.039424942
     2786 H11          19.128800000        22.602300000        16.417400000 H       305 pp       0.039424942
     2787 C1           18.492900000        25.332000000        16.345900000 C.3     306 pp      -0.086043058
     2788 C2           17.106800000        24.742900000        15.998900000 C.3     306 pp      -0.074342058
     2789 H4           19.103100000        25.359600000        15.444200000 H       306 pp       0.039424942
     2790 H5           18.347600000        26.360800000        16.672200000 H       306 pp       0.039424942
     2791 H6           17.149600000        23.660500000        16.038100000 H       306 pp       0.043757942
     2792 C8           16.781600000        25.137100000        14.548500000 C.3     306 pp      -0.086043058
     2793 H9           16.840800000        26.218500000        14.430300000 H       306 pp       0.039424942
     2794 H10          17.492900000        24.663900000        13.871400000 H       306 pp       0.039424942
     2795 H11          15.782300000        24.802400000        14.277700000 H       306 pp       0.039424942
     2796 C1           16.005800000        25.276900000        16.948500000 C.3     307 pp      -0.086043058
     2797 C2           15.049400000        24.229100000        17.563000000 C.3     307 pp      -0.074342058
     2798 H4           15.403800000        26.006500000        16.408700000 H       307 pp       0.039424942
     2799 H5           16.471400000        25.803600000        17.778100000 H       307 pp       0.039424942
     2800 H6           14.300200000        24.805000000        18.096600000 H       307 pp       0.043757942
     2801 C8           15.782300000        23.390100000        18.624800000 C.3     307 pp      -0.086043058
     2802 H9           16.532200000        22.755900000        18.161800000 H       307 pp       0.039424942
     2803 H10          16.267500000        24.050900000        19.341900000 H       307 pp       0.039424942
     2804 H11          15.082200000        22.765700000        19.174300000 H       307 pp       0.039424942
     2805 C1           14.332700000        23.372000000        16.490700000 C.3     308 pp      -0.086043058
     2806 C2           13.086100000        22.606200000        16.982200000 C.3     308 pp      -0.074342058
     2807 H4           15.038200000        22.643000000        16.096400000 H       308 pp       0.039424942
     2808 H5           14.018000000        24.019300000        15.673900000 H       308 pp       0.039424942
     2809 H6           13.305000000        22.103600000        17.919700000 H       308 pp       0.043757942
     2810 C8           12.756700000        21.517000000        15.953800000 C.3     308 pp      -0.086043058
     2811 H9           12.689200000        21.946800000        14.954700000 H       308 pp       0.039424942
     2812 H10          13.532900000        20.755600000        15.963200000 H       308 pp       0.039424942
     2813 H11          11.812100000        21.046000000        16.211700000 H       308 pp       0.039424942
     2814 C1           11.854900000        23.524800000        17.134500000 C.3     309 pp      -0.086043058
     2815 C2           11.013300000        23.176900000        18.381400000 C.3     309 pp      -0.074342058
     2816 H4           11.228900000        23.410900000        16.251800000 H       309 pp       0.039424942
     2817 H5           12.173300000        24.558600000        17.171400000 H       309 pp       0.039424942
     2818 H6           11.033000000        22.092200000        18.483900000 H       309 pp       0.043757942
     2819 C8            9.531870000        23.522600000        18.165600000 C.3     309 pp      -0.086043058
     2820 H9            9.411060000        24.569500000        17.898400000 H       309 pp       0.039424942
     2821 H10           9.130640000        22.906000000        17.361300000 H       309 pp       0.039424942
     2822 H11           8.970010000        23.309800000        19.075000000 H       309 pp       0.039424942
     2823 C1           11.598900000        23.739300000        19.700800000 C.3     310 pp      -0.086043058
     2824 C2           11.165100000        25.140300000        20.207200000 C.3     310 pp      -0.074342058
     2825 H4           12.683800000        23.718500000        19.637600000 H       310 pp       0.039424942
     2826 H5           11.309400000        23.019700000        20.466100000 H       310 pp       0.039424942
     2827 H6           10.087000000        25.139600000        20.340500000 H       310 pp       0.043757942
     2828 C8           11.554600000        26.287700000        19.254300000 C.3     310 pp      -0.086043058
     2829 H9           11.045600000        26.181800000        18.301800000 H       310 pp       0.039424942
     2830 H10          11.251600000        27.248700000        19.660300000 H       310 pp       0.039424942
     2831 H11          12.631400000        26.294500000        19.095900000 H       310 pp       0.039424942
     2832 C1           11.839100000        25.331700000        21.587800000 C.3     311 pp      -0.086043058
     2833 C2           11.525300000        26.635500000        22.361000000 C.3     311 pp      -0.074342058
     2834 H4           12.917700000        25.298800000        21.438100000 H       311 pp       0.039424942
     2835 H5           11.578300000        24.486800000        22.222100000 H       311 pp       0.039424942
     2836 H6           12.011100000        27.458700000        21.840400000 H       311 pp       0.043757942
     2837 C8           12.215500000        26.563700000        23.730700000 C.3     311 pp      -0.086043058
     2838 H9           11.834900000        25.721500000        24.305100000 H       311 pp       0.039424942
     2839 H10          13.289000000        26.438500000        23.589800000 H       311 pp       0.039424942
     2840 H11          12.044700000        27.488600000        24.280500000 H       311 pp       0.039424942
     2841 C1           10.028400000        27.013800000        22.481000000 C.3     312 pp      -0.086043058
     2842 C2            9.105090000        26.004700000        23.206400000 C.3     312 pp      -0.074342058
     2843 H4            9.643870000        27.167600000        21.476200000 H       312 pp       0.039424942
     2844 H5            9.962370000        27.984400000        22.968600000 H       312 pp       0.039424942
     2845 H6            9.518500000        25.002000000        23.144900000 H       312 pp       0.043757942
     2846 C8            7.753400000        26.011700000        22.470200000 C.3     312 pp      -0.086043058
     2847 H9            7.375000000        27.030500000        22.394500000 H       312 pp       0.039424942
     2848 H10           7.876370000        25.596400000        21.470500000 H       312 pp       0.039424942
     2849 H11           7.019830000        25.406400000        22.995600000 H       312 pp       0.039424942
     2850 C1            8.892650000        26.389700000        24.686900000 C.3     313 pp      -0.086043058
     2851 C2            8.883110000        25.199000000        25.670000000 C.3     313 pp      -0.074342058
     2852 H4            7.960740000        26.940400000        24.775700000 H       313 pp       0.039424942
     2853 H5            9.699280000        27.049200000        24.995600000 H       313 pp       0.039424942
     2854 H6            9.820030000        24.653600000        25.567000000 H       313 pp       0.043757942
     2855 C8            7.725640000        24.218700000        25.421700000 C.3     313 pp      -0.086043058
     2856 H9            6.781640000        24.758700000        25.355600000 H       313 pp       0.039424942
     2857 H10           7.895550000        23.665100000        24.499200000 H       313 pp       0.039424942
     2858 H11           7.664780000        23.503100000        26.239000000 H       313 pp       0.039424942
     2859 C1            8.755840000        25.744400000        27.107200000 C.3     314 pp      -0.086043058
     2860 C2            9.846030000        25.210000000        28.052500000 C.3     314 pp      -0.074342058
     2861 H4            7.780380000        25.465800000        27.503100000 H       314 pp       0.039424942
     2862 H5            8.803200000        26.829700000        27.101700000 H       314 pp       0.039424942
     2863 H6            9.978910000        24.144100000        27.882200000 H       314 pp       0.043757942
     2864 C8            9.352430000        25.414100000        29.492600000 C.3     314 pp      -0.086043058
     2865 H9            9.027000000        26.444700000        29.635600000 H       314 pp       0.039424942
     2866 H10           8.514120000        24.745600000        29.688400000 H       314 pp       0.039424942
     2867 H11          10.149100000        25.193000000        30.200200000 H       314 pp       0.039424942
     2868 C1           11.177000000        25.963900000        27.847400000 C.3     315 pp      -0.086043058
     2869 C2           12.415400000        25.145700000        28.250200000 C.3     315 pp      -0.074342058
     2870 H4           11.155300000        26.866900000        28.455100000 H       315 pp       0.039424942
     2871 H5           11.288300000        26.260700000        26.807300000 H       315 pp       0.039424942
     2872 H6           13.222700000        25.836200000        28.490700000 H       315 pp       0.043757942
     2873 H7           12.203200000        24.546400000        29.132000000 H       315 pp       0.043757942
     2874 C8           12.901500000        24.233600000        27.117100000 C.3     315 pp      -0.086043058
     2875 H9           13.279600000        24.840100000        26.294700000 H       315 pp       0.039424942
     2876 H10          13.708600000        23.603800000        27.491400000 H       315 pp       0.039424942
     2877 H11          12.091500000        23.600600000        26.758200000 H       315 pp       0.039424942
     2878 C1           -4.152600000        21.015400000        28.062200000 C.3     316 pp      -0.086043058
     2879 C2           -2.937300000        20.124300000        27.775900000 C.3     316 pp      -0.074342058
     2880 H3           -4.211900000        21.804400000        27.314700000 H       316 pp       0.039424942
     2881 H4           -5.064200000        20.420100000        28.013400000 H       316 pp       0.039424942
     2882 H5           -4.065700000        21.461600000        29.053100000 H       316 pp       0.039424942
     2883 H6           -3.008200000        19.780900000        26.746800000 H       316 pp       0.043757942
     2884 C8           -2.987300000        18.912200000        28.714400000 C.3     316 pp      -0.086043058
     2885 H9           -3.070400000        19.249800000        29.746700000 H       316 pp       0.039424942
     2886 H10          -3.851900000        18.297000000        28.472400000 H       316 pp       0.039424942
     2887 H11          -2.087500000        18.310000000        28.603200000 H       316 pp       0.039424942
     2888 C1           -1.638000000        20.923200000        27.998100000 C.3     317 pp      -0.086043058
     2889 C2           -0.437100000        20.431300000        27.159000000 C.3     317 pp      -0.074342058
     2890 H4           -1.372800000        20.841700000        29.051700000 H       317 pp       0.039424942
     2891 H5           -1.816200000        21.975500000        27.798300000 H       317 pp       0.039424942
     2892 H6           -0.315400000        19.368300000        27.360000000 H       317 pp       0.043757942
     2893 C8            0.838585000        21.086100000        27.713100000 C.3     317 pp      -0.086043058
     2894 H9            0.710468000        22.161400000        27.797500000 H       317 pp       0.039424942
     2895 H10           1.041950000        20.682600000        28.705100000 H       317 pp       0.039424942
     2896 H11           1.694110000        20.869500000        27.076100000 H       317 pp       0.039424942
     2897 C1           -0.561100000        20.543600000        25.613500000 C.3     318 pp      -0.086043058
     2898 C2           -1.280000000        21.756500000        24.975400000 C.3     318 pp      -0.074342058
     2899 H4           -1.094700000        19.651200000        25.296300000 H       318 pp       0.039424942
     2900 H5            0.430322000        20.475500000        25.173100000 H       318 pp       0.039424942
     2901 H6           -2.168200000        22.013800000        25.542700000 H       318 pp       0.043757942
     2902 C8           -1.749000000        21.318800000        23.576800000 C.3     318 pp      -0.086043058
     2903 H9           -0.899500000        20.970500000        22.989500000 H       318 pp       0.039424942
     2904 H10          -2.479000000        20.513700000        23.662200000 H       318 pp       0.039424942
     2905 H11          -2.223400000        22.148600000        23.058300000 H       318 pp       0.039424942
     2906 C1           -0.345700000        22.979200000        24.842700000 C.3     319 pp      -0.086043058
     2907 C2           -1.105800000        24.306100000        24.609200000 C.3     319 pp      -0.074342058
     2908 H4            0.339137000        22.804100000        24.013800000 H       319 pp       0.039424942
     2909 H5            0.260166000        23.072300000        25.734900000 H       319 pp       0.039424942
     2910 H6           -2.177900000        24.133000000        24.579600000 H       319 pp       0.043757942
     2911 C8           -0.707900000        24.878400000        23.238900000 C.3     319 pp      -0.086043058
     2912 H9            0.354577000        25.123200000        23.226100000 H       319 pp       0.039424942
     2913 H10          -0.919700000        24.154700000        22.452600000 H       319 pp       0.039424942
     2914 H11          -1.282500000        25.781800000        23.036200000 H       319 pp       0.039424942
     2915 C1           -0.781000000        25.378200000        25.674400000 C.3     320 pp      -0.086043058
     2916 C2           -1.259000000        25.095200000        27.117900000 C.3     320 pp      -0.074342058
     2917 H4           -1.230500000        26.319800000        25.359600000 H       320 pp       0.039424942
     2918 H5            0.301420000        25.510000000        25.684500000 H       320 pp       0.039424942
     2919 H6           -0.781600000        24.192100000        27.482900000 H       320 pp       0.043757942
     2920 C8           -2.782700000        24.918600000        27.206200000 C.3     320 pp      -0.086043058
     2921 H9           -3.276500000        25.744500000        26.702800000 H       320 pp       0.039424942
     2922 H10          -3.084700000        23.985600000        26.739000000 H       320 pp       0.039424942
     2923 H11          -3.099100000        24.894500000        28.247800000 H       320 pp       0.039424942
     2924 C1           -0.845600000        26.287700000        28.005500000 C.3     321 pp      -0.086043058
     2925 C2           -0.678800000        25.916000000        29.497500000 C.3     321 pp      -0.074342058
     2926 H4           -1.598300000        27.068600000        27.904300000 H       321 pp       0.039424942
     2927 H5            0.089911000        26.700100000        27.639400000 H       321 pp       0.039424942
     2928 H6           -1.034700000        24.903700000        29.679600000 H       321 pp       0.043757942
     2929 C8           -1.544100000        26.862100000        30.343600000 C.3     321 pp      -0.086043058
     2930 H9           -1.208500000        27.891600000        30.215000000 H       321 pp       0.039424942
     2931 H10          -2.589000000        26.780100000        30.043500000 H       321 pp       0.039424942
     2932 H11          -1.468200000        26.589600000        31.396100000 H       321 pp       0.039424942
     2933 C1            0.787795000        26.039000000        29.971000000 C.3     322 pp      -0.086043058
     2934 C2            1.705030000        24.914700000        29.440000000 C.3     322 pp      -0.074342058
     2935 H4            0.809575000        26.000800000        31.059400000 H       322 pp       0.039424942
     2936 H5            1.173040000        27.014000000        29.674400000 H       322 pp       0.039424942
     2937 H6            1.350680000        24.573300000        28.473500000 H       322 pp       0.043757942
     2938 C8            1.669940000        23.717600000        30.401000000 C.3     322 pp      -0.086043058
     2939 H9            2.128910000        23.985100000        31.352600000 H       322 pp       0.039424942
     2940 H10           0.641805000        23.402900000        30.574000000 H       322 pp       0.039424942
     2941 H11           2.216510000        22.884400000        29.961400000 H       322 pp       0.039424942
     2942 C1            3.163120000        25.400000000        29.302200000 C.3     323 pp      -0.086043058
     2943 C2            3.398430000        26.139400000        27.966000000 C.3     323 pp      -0.074342058
     2944 H4            3.838730000        24.546200000        29.346200000 H       323 pp       0.039424942
     2945 H5            3.382510000        26.045400000        30.151400000 H       323 pp       0.039424942
     2946 H6            2.473720000        26.638200000        27.690800000 H       323 pp       0.043757942
     2947 C8            3.752050000        25.119200000        26.866900000 C.3     323 pp      -0.086043058
     2948 H9            3.002230000        24.330900000        26.824400000 H       323 pp       0.039424942
     2949 H10           3.780270000        25.611300000        25.896400000 H       323 pp       0.039424942
     2950 H11           4.723650000        24.667500000        27.066900000 H       323 pp       0.039424942
     2951 C1            4.511750000        27.204300000        28.095700000 C.3     324 pp      -0.086043058
     2952 C2            4.445370000        28.266900000        26.974500000 C.3     324 pp      -0.074342058
     2953 H4            5.484560000        26.714500000        28.090300000 H       324 pp       0.039424942
     2954 H5            4.401850000        27.714400000        29.048300000 H       324 pp       0.039424942
     2955 H6            3.576220000        28.065800000        26.351000000 H       324 pp       0.043757942
     2956 C8            5.653560000        28.177700000        26.031300000 C.3     324 pp      -0.086043058
     2957 H9            6.591600000        28.236200000        26.579200000 H       324 pp       0.039424942
     2958 H10           5.616510000        27.230800000        25.495900000 H       324 pp       0.039424942
     2959 H11           5.607780000        28.988000000        25.305300000 H       324 pp       0.039424942
     2960 C1            4.223460000        29.692100000        27.525800000 C.3     325 pp      -0.086043058
     2961 C2            5.405780000        30.328600000        28.298900000 C.3     325 pp      -0.074342058
     2962 H4            3.340840000        29.671600000        28.164600000 H       325 pp       0.039424942
     2963 H5            3.972240000        30.325800000        26.676100000 H       325 pp       0.039424942
     2964 H6            6.215630000        29.611500000        28.404200000 H       325 pp       0.043757942
     2965 C8            4.933460000        30.711300000        29.713400000 C.3     325 pp      -0.086043058
     2966 H9            4.205410000        31.521100000        29.661700000 H       325 pp       0.039424942
     2967 H10           4.479120000        29.852000000        30.205100000 H       325 pp       0.039424942
     2968 H11           5.781190000        31.025700000        30.319600000 H       325 pp       0.039424942
     2969 C1            5.891950000        31.567700000        27.508800000 C.3     326 pp      -0.086043058
     2970 C2            7.102700000        32.337600000        28.086200000 C.3     326 pp      -0.074342058
     2971 H4            5.063090000        32.274100000        27.458900000 H       326 pp       0.039424942
     2972 H5            6.123720000        31.266200000        26.489600000 H       326 pp       0.039424942
     2973 H6            6.828900000        32.694600000        29.076800000 H       326 pp       0.043757942
     2974 C8            7.301150000        33.618100000        27.265800000 C.3     326 pp      -0.086043058
     2975 H9            7.332580000        33.392700000        26.205300000 H       326 pp       0.039424942
     2976 H10           6.465270000        34.291600000        27.451000000 H       326 pp       0.039424942
     2977 H11           8.223940000        34.114400000        27.561600000 H       326 pp       0.039424942
     2978 C1            8.414780000        31.535900000        28.278100000 C.3     327 pp      -0.086043058
     2979 C2            8.981580000        30.694700000        27.106900000 C.3     327 pp      -0.074342058
     2980 H4            8.229510000        30.863700000        29.113900000 H       327 pp       0.039424942
     2981 H5            9.192060000        32.224600000        28.605500000 H       327 pp       0.039424942
     2982 H6            8.178890000        30.231200000        26.541300000 H       327 pp       0.043757942
     2983 C8            9.819070000        29.579000000        27.756300000 C.3     327 pp      -0.086043058
     2984 H9           10.562800000        30.011500000        28.425300000 H       327 pp       0.039424942
     2985 H10           9.170600000        28.917300000        28.329400000 H       327 pp       0.039424942
     2986 H11          10.328300000        28.986100000        27.000100000 H       327 pp       0.039424942
     2987 C1            9.886230000        31.516500000        26.161000000 C.3     328 pp      -0.086043058
     2988 C2           10.199700000        30.800800000        24.825900000 C.3     328 pp      -0.074342058
     2989 H4           10.818000000        31.726000000        26.683300000 H       328 pp       0.039424942
     2990 H5            9.423360000        32.469000000        25.936200000 H       328 pp       0.039424942
     2991 H6            9.837090000        29.778200000        24.850500000 H       328 pp       0.043757942
     2992 C8           11.724000000        30.733300000        24.653300000 C.3     328 pp      -0.086043058
     2993 H9           12.142000000        31.739600000        24.636500000 H       328 pp       0.039424942
     2994 H10          12.163900000        30.171200000        25.475900000 H       328 pp       0.039424942
     2995 H11          11.971700000        30.226500000        23.720900000 H       328 pp       0.039424942
     2996 C1            9.611920000        31.525200000        23.592900000 C.3     329 pp      -0.086043058
     2997 C2            8.070520000        31.491500000        23.475400000 C.3     329 pp      -0.074342058
     2998 H4           10.020600000        31.061500000        22.695400000 H       329 pp       0.039424942
     2999 H5            9.951600000        32.560100000        23.611600000 H       329 pp       0.039424942
     3000 H6            7.616150000        31.726700000        24.432400000 H       329 pp       0.043757942
     3001 C8            7.565250000        30.106900000        23.043400000 C.3     329 pp      -0.086043058
     3002 H9            7.953080000        29.855400000        22.056000000 H       329 pp       0.039424942
     3003 H10           7.872740000        29.348300000        23.757500000 H       329 pp       0.039424942
     3004 H11           6.476430000        30.112000000        23.013300000 H       329 pp       0.039424942
     3005 C1            7.605680000        32.516600000        22.420400000 C.3     330 pp      -0.086043058
     3006 C2            7.387680000        33.920700000        23.006100000 C.3     330 pp      -0.074342058
     3007 H4            6.670370000        32.189400000        21.968100000 H       330 pp       0.039424942
     3008 H5            8.354260000        32.577100000        21.631700000 H       330 pp       0.039424942
     3009 H6            8.112630000        34.122900000        23.793300000 H       330 pp       0.043757942
     3010 H7            7.522580000        34.653500000        22.210400000 H       330 pp       0.043757942
     3011 C8            5.966960000        34.076500000        23.564500000 C.3     330 pp      -0.086043058
     3012 H9            5.246030000        34.054000000        22.749100000 H       330 pp       0.039424942
     3013 H10           5.739120000        33.273700000        24.263900000 H       330 pp       0.039424942
     3014 H11           5.887980000        35.032300000        24.080700000 H       330 pp       0.039424942
     3015 C1           31.697400000        11.989900000         1.465100000 C.3     331 pp      -0.086043058
     3016 C2           31.017200000        10.992400000         0.518615000 C.3     331 pp      -0.074342058
     3017 H3           32.040400000        11.473800000         2.361760000 H       331 pp       0.039424942
     3018 H4           32.558700000        12.436900000         0.969080000 H       331 pp       0.039424942
     3019 H5           30.997700000        12.774800000         1.746570000 H       331 pp       0.039424942
     3020 H6           31.732400000        10.199000000         0.309466000 H       331 pp       0.043757942
     3021 C8           30.663900000        11.701200000        -0.797500000 C.3     331 pp      -0.086043058
     3022 H9           31.575200000        12.071500000        -1.266800000 H       331 pp       0.039424942
     3023 H10          30.178300000        11.005300000        -1.480400000 H       331 pp       0.039424942
     3024 H11          29.995900000        12.540400000        -0.605400000 H       331 pp       0.039424942
     3025 C1           29.758100000        10.410000000         1.190880000 C.3     332 pp      -0.086043058
     3026 C2           29.324600000         9.063570000         0.570196000 C.3     332 pp      -0.074342058
     3027 H4           28.947000000        11.130300000         1.102400000 H       332 pp       0.039424942
     3028 H5           29.955700000        10.270200000         2.252150000 H       332 pp       0.039424942
     3029 H6           29.942400000         8.828020000        -0.294100000 H       332 pp       0.043757942
     3030 C8           27.873600000         9.175890000         0.080423500 C.3     332 pp      -0.086043058
     3031 H9           27.210300000         9.380030000         0.920732000 H       332 pp       0.039424942
     3032 H10          27.790200000         9.978390000        -0.652700000 H       332 pp       0.039424942
     3033 H11          27.572200000         8.242620000        -0.394000000 H       332 pp       0.039424942
     3034 C1           29.408900000         7.904550000         1.583850000 C.3     333 pp      -0.086043058
     3035 C2           30.854300000         7.529050000         1.972680000 C.3     333 pp      -0.074342058
     3036 H4           28.945800000         7.026360000         1.139000000 H       333 pp       0.039424942
     3037 H5           28.833100000         8.170150000         2.468730000 H       333 pp       0.039424942
     3038 H6           31.502100000         8.394600000         1.905510000 H       333 pp       0.043757942
     3039 C8           31.399800000         6.479720000         0.991089000 C.3     333 pp      -0.086043058
     3040 H9           30.897500000         5.524520000         1.141660000 H       333 pp       0.039424942
     3041 H10          31.246200000         6.806720000        -0.036200000 H       333 pp       0.039424942
     3042 H11          32.469700000         6.350000000         1.154910000 H       333 pp       0.039424942
     3043 C1           30.920400000         6.938180000         3.395660000 C.3     334 pp      -0.086043058
     3044 C2           30.871200000         7.961390000         4.554140000 C.3     334 pp      -0.074342058
     3045 H4           31.854300000         6.385870000         3.484200000 H       334 pp       0.039424942
     3046 H5           30.096000000         6.235440000         3.502960000 H       334 pp       0.039424942
     3047 H6           30.100800000         8.707590000         4.377570000 H       334 pp       0.043757942
     3048 C8           32.221200000         8.683210000         4.707020000 C.3     334 pp      -0.086043058
     3049 H9           32.992600000         7.967960000         4.994020000 H       334 pp       0.039424942
     3050 H10          32.513900000         9.168320000         3.779280000 H       334 pp       0.039424942
     3051 H11          32.142300000         9.452450000         5.475580000 H       334 pp       0.039424942
     3052 C1           30.603300000         7.224290000         5.883770000 C.3     335 pp      -0.086043058
     3053 C2           29.112400000         7.028760000         6.229690000 C.3     335 pp      -0.074342058
     3054 H4           31.064000000         7.789870000         6.691160000 H       335 pp       0.039424942
     3055 H5           31.087000000         6.251680000         5.821680000 H       335 pp       0.039424942
     3056 H6           28.578900000         6.891620000         5.291180000 H       335 pp       0.043757942
     3057 C8           28.523000000         8.292800000         6.882240000 C.3     335 pp      -0.086043058
     3058 H9           29.073400000         8.566160000         7.781410000 H       335 pp       0.039424942
     3059 H10          28.568500000         9.124300000         6.180720000 H       335 pp       0.039424942
     3060 H11          27.478900000         8.119410000         7.139990000 H       335 pp       0.039424942
     3061 C1           28.815300000         5.755460000         7.067850000 C.3     336 pp      -0.086043058
     3062 C2           29.394600000         5.635380000         8.504040000 C.3     336 pp      -0.074342058
     3063 H4           29.126500000         4.886350000         6.490790000 H       336 pp       0.039424942
     3064 H5           27.731300000         5.710940000         7.149450000 H       336 pp       0.039424942
     3065 H6           29.297900000         6.591020000         9.003780000 H       336 pp       0.043757942
     3066 C8           30.882800000         5.238940000         8.503250000 C.3     336 pp      -0.086043058
     3067 H9           31.053800000         4.402690000         7.827560000 H       336 pp       0.039424942
     3068 H10          31.490700000         6.081540000         8.197260000 H       336 pp       0.039424942
     3069 H11          31.211000000         4.960820000         9.501720000 H       336 pp       0.039424942
     3070 C1           28.624400000         4.553020000         9.305770000 C.3     337 pp      -0.086043058
     3071 C2           27.666300000         5.037080000        10.419800000 C.3     337 pp      -0.074342058
     3072 H4           29.323900000         3.860560000         9.769960000 H       337 pp       0.039424942
     3073 H5           28.036500000         3.958310000         8.607190000 H       337 pp       0.039424942
     3074 H6           27.130100000         4.127470000        10.689600000 H       337 pp       0.043757942
     3075 C8           26.542000000         5.948590000         9.902460000 C.3     337 pp      -0.086043058
     3076 H9           26.930000000         6.797000000         9.347030000 H       337 pp       0.039424942
     3077 H10          25.903600000         5.364840000         9.240740000 H       337 pp       0.039424942
     3078 H11          25.938200000         6.304890000        10.735400000 H       337 pp       0.039424942
     3079 C1           28.304300000         5.445940000        11.778200000 C.3     338 pp      -0.086043058
     3080 C2           29.321400000         6.613390000        11.889500000 C.3     338 pp      -0.074342058
     3081 H4           28.825100000         4.555700000        12.129200000 H       338 pp       0.039424942
     3082 H5           27.492400000         5.615850000        12.476000000 H       338 pp       0.039424942
     3083 H6           30.077300000         6.451540000        11.130400000 H       338 pp       0.043757942
     3084 C8           30.104600000         6.503640000        13.208000000 C.3     338 pp      -0.086043058
     3085 H9           29.433100000         6.444100000        14.061900000 H       338 pp       0.039424942
     3086 H10          30.720000000         5.608200000        13.185800000 H       338 pp       0.039424942
     3087 H11          30.763700000         7.364400000        13.319100000 H       338 pp       0.039424942
     3088 C1           28.792600000         8.053070000        11.665200000 C.3     339 pp      -0.086043058
     3089 C2           28.209000000         8.858720000        12.858500000 C.3     339 pp      -0.074342058
     3090 H4           28.061700000         8.052460000        10.866500000 H       339 pp       0.039424942
     3091 H5           29.659100000         8.595990000        11.296400000 H       339 pp       0.039424942
     3092 H6           28.943600000         8.963590000        13.653900000 H       339 pp       0.043757942
     3093 C8           26.960600000         8.192780000        13.463900000 C.3     339 pp      -0.086043058
     3094 H9           27.241600000         7.313370000        14.036200000 H       339 pp       0.039424942
     3095 H10          26.461400000         8.877540000        14.146400000 H       339 pp       0.039424942
     3096 H11          26.262500000         7.911690000        12.676500000 H       339 pp       0.039424942
     3097 C1           27.763200000        10.269000000        12.402200000 C.3     340 pp      -0.086043058
     3098 C2           28.830100000        11.210200000        11.785200000 C.3     340 pp      -0.074342058
     3099 H4           27.340400000        10.786900000        13.262200000 H       340 pp       0.039424942
     3100 H5           26.970800000        10.113300000        11.674400000 H       340 pp       0.039424942
     3101 H6           29.153200000        10.826400000        10.820700000 H       340 pp       0.043757942
     3102 C8           30.069400000        11.321800000        12.692900000 C.3     340 pp      -0.086043058
     3103 H9           29.766300000        11.570300000        13.710200000 H       340 pp       0.039424942
     3104 H10          30.621000000        10.383600000        12.699500000 H       340 pp       0.039424942
     3105 H11          30.739100000        12.097200000        12.322300000 H       340 pp       0.039424942
     3106 C1           28.279500000        12.645900000        11.592800000 C.3     341 pp      -0.086043058
     3107 C2           27.069800000        12.811600000        10.638700000 C.3     341 pp      -0.074342058
     3108 H4           29.083400000        13.271800000        11.206300000 H       341 pp       0.039424942
     3109 H5           28.012000000        13.026000000        12.576700000 H       341 pp       0.039424942
     3110 H6           26.303500000        12.081400000        10.867900000 H       341 pp       0.043757942
     3111 C8           27.491200000        12.607200000         9.172830000 C.3     341 pp      -0.086043058
     3112 H9           28.258400000        13.330800000         8.896230000 H       341 pp       0.039424942
     3113 H10          27.877700000        11.600300000         9.027470000 H       341 pp       0.039424942
     3114 H11          26.628600000        12.731600000         8.517930000 H       341 pp       0.039424942
     3115 C1           26.460300000        14.225800000        10.787800000 C.3     342 pp      -0.086043058
     3116 C2           25.128500000        14.299700000        11.570400000 C.3     342 pp      -0.074342058
     3117 H4           26.281000000        14.647300000         9.799320000 H       342 pp       0.039424942
     3118 H5           27.183800000        14.875300000        11.279800000 H       342 pp       0.039424942
     3119 H6           24.876900000        15.355900000        11.621200000 H       342 pp       0.043757942
     3120 C8           25.293200000        13.826800000        13.023200000 C.3     342 pp      -0.086043058
     3121 H9           25.524000000        12.763800000        13.072000000 H       342 pp       0.039424942
     3122 H10          26.095000000        14.393700000        13.494100000 H       342 pp       0.039424942
     3123 H11          24.373900000        14.008600000        13.572900000 H       342 pp       0.039424942
     3124 C1           23.982800000        13.536100000        10.862200000 C.3     343 pp      -0.086043058
     3125 C2           22.672400000        14.326400000        10.648200000 C.3     343 pp      -0.074342058
     3126 H4           23.750200000        12.635900000        11.430800000 H       343 pp       0.039424942
     3127 H5           24.325500000        13.214800000         9.880200000 H       343 pp       0.039424942
     3128 H6           21.999500000        13.650600000        10.122200000 H       343 pp       0.043757942
     3129 C8           22.900800000        15.537400000         9.726660000 C.3     343 pp      -0.086043058
     3130 H9           23.143700000        16.423000000        10.310600000 H       343 pp       0.039424942
     3131 H10          23.713800000        15.334700000         9.031410000 H       343 pp       0.039424942
     3132 H11          21.997300000        15.731000000         9.151400000 H       343 pp       0.039424942
     3133 C1           22.004500000        14.730300000        11.981800000 C.3     344 pp      -0.086043058
     3134 C2           20.528100000        15.156800000        11.827600000 C.3     344 pp      -0.074342058
     3135 H4           22.569200000        15.544700000        12.431900000 H       344 pp       0.039424942
     3136 H5           22.043400000        13.882900000        12.664900000 H       344 pp       0.039424942
     3137 H6           20.358400000        15.562700000        10.833400000 H       344 pp       0.043757942
     3138 C8           20.213400000        16.269700000        12.842000000 C.3     344 pp      -0.086043058
     3139 H9           20.337200000        15.898500000        13.857200000 H       344 pp       0.039424942
     3140 H10          20.883000000        17.115400000        12.684500000 H       344 pp       0.039424942
     3141 H11          19.193600000        16.626000000        12.710300000 H       344 pp       0.039424942
     3142 C1           19.619800000        13.925500000        12.022500000 C.3     345 pp      -0.086043058
     3143 C2           18.139100000        14.217500000        11.736700000 C.3     345 pp      -0.074342058
     3144 H4           19.710900000        13.556000000        13.042700000 H       345 pp       0.039424942
     3145 H5           19.947700000        13.143300000        11.340200000 H       345 pp       0.039424942
     3146 H6           17.703700000        14.773900000        12.565900000 H       345 pp       0.043757942
     3147 H7           18.038600000        14.793000000        10.816700000 H       345 pp       0.043757942
     3148 C8           17.367000000        12.905500000        11.583300000 C.3     345 pp      -0.086043058
     3149 H9           17.702400000        12.379200000        10.690300000 H       345 pp       0.039424942
     3150 H10          17.527200000        12.279300000        12.458700000 H       345 pp       0.039424942
     3151 H11          16.305700000        13.127100000        11.491600000 H       345 pp       0.039424942
     3152 C1           10.062000000        -1.411200000         6.281820000 C.3     346 pp      -0.086043058
     3153 C2           11.006400000        -0.388000000         6.925230000 C.3     346 pp      -0.074342058
     3154 H3           10.085600000        -1.308900000         5.196710000 H       346 pp       0.039424942
     3155 H4           10.369400000        -2.420400000         6.556990000 H       346 pp       0.039424942
     3156 H5            9.044950000        -1.246400000         6.637200000 H       346 pp       0.039424942
     3157 H6           11.019700000        -0.566800000         7.998190000 H       346 pp       0.043757942
     3158 C8           10.463600000         1.026960000         6.667340000 C.3     346 pp      -0.086043058
     3159 H9            9.489720000         1.134540000         7.144760000 H       346 pp       0.039424942
     3160 H10          11.138400000         1.771860000         7.084580000 H       346 pp       0.039424942
     3161 H11          10.355300000         1.201000000         5.596570000 H       346 pp       0.039424942
     3162 C1           12.422500000        -0.558100000         6.342200000 C.3     347 pp      -0.086043058
     3163 C2           13.522400000        -0.089500000         7.315620000 C.3     347 pp      -0.074342058
     3164 H4           12.479300000         0.009008130         5.414020000 H       347 pp       0.039424942
     3165 H5           12.596200000        -1.606700000         6.102190000 H       347 pp       0.039424942
     3166 H6           13.125300000         0.702998000         7.944720000 H       347 pp       0.043757942
     3167 C8           14.683800000         0.493662000         6.496070000 C.3     347 pp      -0.086043058
     3168 H9           15.100300000        -0.273900000         5.844530000 H       347 pp       0.039424942
     3169 H10          14.329200000         1.324110000         5.887520000 H       347 pp       0.039424942
     3170 H11          15.459200000         0.872883000         7.158290000 H       347 pp       0.039424942
     3171 C1           13.985700000        -1.278300000         8.190840000 C.3     348 pp      -0.086043058
     3172 C2           14.796000000        -0.852700000         9.435870000 C.3     348 pp      -0.074342058
     3173 H4           14.587100000        -1.954500000         7.583770000 H       348 pp       0.039424942
     3174 H5           13.112700000        -1.832700000         8.513170000 H       348 pp       0.039424942
     3175 H6           14.773100000         0.227193000         9.546500000 H       348 pp       0.043757942
     3176 C8           16.269900000        -1.243300000         9.229090000 C.3     348 pp      -0.086043058
     3177 H9           16.381800000        -2.327800000         9.243080000 H       348 pp       0.039424942
     3178 H10          16.631900000        -0.863100000         8.276870000 H       348 pp       0.039424942
     3179 H11          16.880600000        -0.812100000        10.022300000 H       348 pp       0.039424942
     3180 C1           14.341300000        -1.531900000        10.753000000 C.3     349 pp      -0.086043058
     3181 C2           12.984300000        -1.155700000        11.405600000 C.3     349 pp      -0.074342058
     3182 H4           15.090600000        -1.280000000        11.502800000 H       349 pp       0.039424942
     3183 H5           14.386000000        -2.611500000        10.616000000 H       349 pp       0.039424942
     3184 H6           13.149600000        -1.318500000        12.469900000 H       349 pp       0.043757942
     3185 C8           11.844500000        -2.119600000        11.021200000 C.3     349 pp      -0.086043058
     3186 H9           12.202900000        -3.148000000        10.995400000 H       349 pp       0.039424942
     3187 H10          11.055000000        -2.063900000        11.769300000 H       349 pp       0.039424942
     3188 H11          11.423100000        -1.862300000        10.053600000 H       349 pp       0.039424942
     3189 C1           12.601600000         0.331776000        11.225500000 C.3     350 pp      -0.086043058
     3190 C2           11.483300000         0.807739000        12.183100000 C.3     350 pp      -0.074342058
     3191 H4           12.283600000         0.506096000        10.200400000 H       350 pp       0.039424942
     3192 H5           13.494600000         0.923309000        11.405600000 H       350 pp       0.039424942
     3193 H6           11.328000000         0.066368500        12.962400000 H       350 pp       0.043757942
     3194 C8           10.167600000         0.945932000        11.397400000 C.3     350 pp      -0.086043058
     3195 H9            9.343110000         1.118090000        12.089500000 H       350 pp       0.039424942
     3196 H10          10.233600000         1.782920000        10.701200000 H       350 pp       0.039424942
     3197 H11           9.956270000         0.036095200        10.839300000 H       350 pp       0.039424942
     3198 C1           11.778900000         2.189890000        12.819000000 C.3     351 pp      -0.086043058
     3199 C2           12.508100000         2.203770000        14.183600000 C.3     351 pp      -0.074342058
     3200 H4           10.830200000         2.702380000        12.977000000 H       351 pp       0.039424942
     3201 H5           12.343900000         2.797650000        12.112300000 H       351 pp       0.039424942
     3202 H6           12.564500000         3.255150000        14.461000000 H       351 pp       0.043757942
     3203 C8           13.950200000         1.676740000        14.069900000 C.3     351 pp      -0.086043058
     3204 H9           13.955500000         0.615556000        13.830300000 H       351 pp       0.039424942
     3205 H10          14.479100000         2.226410000        13.291600000 H       351 pp       0.039424942
     3206 H11          14.481400000         1.819340000        15.007600000 H       351 pp       0.039424942
     3207 C1           11.715700000         1.452730000        15.280100000 C.3     352 pp      -0.086043058
     3208 C2           11.566600000         2.195040000        16.628300000 C.3     352 pp      -0.074342058
     3209 H4           12.174000000         0.480638000        15.455100000 H       352 pp       0.039424942
     3210 H5           10.707100000         1.288810000        14.903700000 H       352 pp       0.039424942
     3211 H6           10.995900000         3.105250000        16.442000000 H       352 pp       0.043757942
     3212 C8           12.923600000         2.570200000        17.255800000 C.3     352 pp      -0.086043058
     3213 H9           13.541200000         1.681250000        17.376100000 H       352 pp       0.039424942
     3214 H10          13.448300000         3.290330000        16.632400000 H       352 pp       0.039424942
     3215 H11          12.776800000         3.035610000        18.226200000 H       352 pp       0.039424942
     3216 C1           10.771200000         1.271930000        17.583600000 C.3     353 pp      -0.086043058
     3217 C2           10.153200000         2.002330000        18.798400000 C.3     353 pp      -0.074342058
     3218 H4           11.425100000         0.476050000        17.932100000 H       353 pp       0.039424942
     3219 H5            9.967280000         0.808751000        17.016300000 H       353 pp       0.039424942
     3220 H6           10.322300000         3.064360000        18.652800000 H       353 pp       0.043757942
     3221 C8           10.848100000         1.653540000        20.128500000 C.3     353 pp      -0.086043058
     3222 H9           10.826100000         0.584489000        20.326800000 H       353 pp       0.039424942
     3223 H10          11.885700000         1.978590000        20.105300000 H       353 pp       0.039424942
     3224 H11          10.346900000         2.175340000        20.940900000 H       353 pp       0.039424942
     3225 C1            8.613540000         1.870230000        18.868700000 C.3     354 pp      -0.086043058
     3226 C2            7.987170000         0.607146000        19.524100000 C.3     354 pp      -0.074342058
     3227 H4            8.210630000         2.016480000        17.870200000 H       354 pp       0.039424942
     3228 H5            8.296550000         2.726400000        19.463800000 H       354 pp       0.039424942
     3229 H6            8.330480000         0.606253000        20.557400000 H       354 pp       0.043757942
     3230 C8            8.452130000        -0.744900000        18.948600000 C.3     354 pp      -0.086043058
     3231 H9            8.192200000        -0.844200000        17.898800000 H       354 pp       0.039424942
     3232 H10           9.528830000        -0.849400000        19.042500000 H       354 pp       0.039424942
     3233 H11           8.006030000        -1.553100000        19.522700000 H       354 pp       0.039424942
     3234 C1            6.446640000         0.783693000        19.655400000 C.3     355 pp      -0.086043058
     3235 C2            5.400520000         0.094074000        18.738800000 C.3     355 pp      -0.074342058
     3236 H4            6.227530000         1.847520000        19.590500000 H       355 pp       0.039424942
     3237 H5            6.206140000         0.490558000        20.673200000 H       355 pp       0.039424942
     3238 H6            4.499580000         0.682430000        18.890500000 H       355 pp       0.043757942
     3239 C8            5.010000000        -1.319000000        19.203000000 C.3     355 pp      -0.086043058
     3240 H9            5.831460000        -2.019900000        19.091900000 H       355 pp       0.039424942
     3241 H10           4.696410000        -1.294900000        20.245700000 H       355 pp       0.039424942
     3242 H11           4.173170000        -1.669500000        18.600600000 H       355 pp       0.039424942
     3243 C1            5.696390000         0.102928000        17.225900000 C.3     356 pp      -0.086043058
     3244 C2            4.479600000         0.516834000        16.368800000 C.3     356 pp      -0.074342058
     3245 H4            5.989860000        -0.903700000        16.932300000 H       356 pp       0.039424942
     3246 H5            6.525760000         0.763659000        17.020400000 H       356 pp       0.039424942
     3247 H6            3.586900000         0.078628700        16.814300000 H       356 pp       0.043757942
     3248 C8            4.591950000        -0.110100000        14.970400000 C.3     356 pp      -0.086043058
     3249 H9            5.534530000         0.162234000        14.497100000 H       356 pp       0.039424942
     3250 H10           4.539640000        -1.195700000        15.054700000 H       356 pp       0.039424942
     3251 H11           3.761150000         0.224701000        14.350100000 H       356 pp       0.039424942
     3252 C1            4.242720000         2.045950000        16.303800000 C.3     357 pp      -0.086043058
     3253 C2            5.327730000         2.892230000        15.590200000 C.3     357 pp      -0.074342058
     3254 H4            4.126740000         2.411550000        17.321300000 H       357 pp       0.039424942
     3255 H5            3.286110000         2.208440000        15.808500000 H       357 pp       0.039424942
     3256 H6            6.204630000         2.282710000        15.402700000 H       357 pp       0.043757942
     3257 C8            5.742840000         4.036070000        16.530000000 C.3     357 pp      -0.086043058
     3258 H9            4.901290000         4.707780000        16.701100000 H       357 pp       0.039424942
     3259 H10           6.081440000         3.630430000        17.483400000 H       357 pp       0.039424942
     3260 H11           6.568700000         4.594180000        16.096400000 H       357 pp       0.039424942
     3261 C1            4.773010000         3.404630000        14.238800000 C.3     358 pp      -0.086043058
     3262 C2            5.735610000         4.133070000        13.269300000 C.3     358 pp      -0.074342058
     3263 H4            3.910500000         4.044490000        14.424900000 H       358 pp       0.039424942
     3264 H5            4.414260000         2.536950000        13.688200000 H       358 pp       0.039424942
     3265 H6            5.263900000         4.035990000        12.294100000 H       358 pp       0.043757942
     3266 C8            7.109330000         3.456980000        13.122200000 C.3     358 pp      -0.086043058
     3267 H9            7.707680000         3.571160000        14.025800000 H       358 pp       0.039424942
     3268 H10           6.969850000         2.396420000        12.913100000 H       358 pp       0.039424942
     3269 H11           7.644640000         3.909870000        12.287600000 H       358 pp       0.039424942
     3270 C1            5.894870000         5.641900000        13.562000000 C.3     359 pp      -0.086043058
     3271 C2            5.700900000         6.500970000        12.297600000 C.3     359 pp      -0.074342058
     3272 H4            6.899490000         5.816020000        13.945000000 H       359 pp       0.039424942
     3273 H5            5.185350000         5.969430000        14.320700000 H       359 pp       0.039424942
     3274 H6            6.291950000         6.074360000        11.488700000 H       359 pp       0.043757942
     3275 C8            6.233730000         7.913250000        12.579700000 C.3     359 pp      -0.086043058
     3276 H9            5.718030000         8.345900000        13.437300000 H       359 pp       0.039424942
     3277 H10           7.301780000         7.873510000        12.789300000 H       359 pp       0.039424942
     3278 H11           6.077340000         8.543780000        11.707200000 H       359 pp       0.039424942
     3279 C1            4.213000000         6.587730000        11.888900000 C.3     360 pp      -0.086043058
     3280 C2            3.959270000         6.174430000        10.429100000 C.3     360 pp      -0.074342058
     3281 H4            3.843880000         7.601680000        12.040400000 H       360 pp       0.039424942
     3282 H5            3.622250000         5.925570000        12.520000000 H       360 pp       0.039424942
     3283 H6            4.429690000         5.213920000        10.220500000 H       360 pp       0.043757942
     3284 H7            2.883480000         6.066800000        10.292900000 H       360 pp       0.043757942
     3285 C8            4.459180000         7.216420000         9.422840000 C.3     360 pp      -0.086043058
     3286 H9            4.009800000         8.183840000         9.639610000 H       360 pp       0.039424942
     3287 H10           5.542730000         7.300690000         9.464980000 H       360 pp       0.039424942
     3288 H11           4.168600000         6.904330000         8.420890000 H       360 pp       0.039424942
     3289 C1           10.147500000         9.976440000        25.017200000 C.3     361 pp      -0.086043058
     3290 C2           11.109500000         9.627140000        26.162700000 C.3     361 pp      -0.074342058
     3291 H3            9.335060000         9.251850000        24.975600000 H       361 pp       0.039424942
     3292 H4            9.732070000        10.971400000        25.175900000 H       361 pp       0.039424942
     3293 H5           10.677000000         9.954510000        24.065100000 H       361 pp       0.039424942
     3294 H6           11.580900000         8.678160000        25.922700000 H       361 pp       0.043757942
     3295 C8           10.276500000         9.455800000        27.443000000 C.3     361 pp      -0.086043058
     3296 H9            9.472430000         8.742340000        27.266200000 H       361 pp       0.039424942
     3297 H10          10.895100000         9.070950000        28.247300000 H       361 pp       0.039424942
     3298 H11           9.844060000        10.407200000        27.746600000 H       361 pp       0.039424942
     3299 C1           12.158500000        10.759400000        26.268800000 C.3     362 pp      -0.086043058
     3300 C2           13.542300000        10.437800000        26.882300000 C.3     362 pp      -0.074342058
     3301 H4           11.720700000        11.591500000        26.817000000 H       362 pp       0.039424942
     3302 H5           12.354300000        11.119300000        25.259700000 H       362 pp       0.039424942
     3303 H6           14.121200000        11.348400000        26.735600000 H       362 pp       0.043757942
     3304 C8           14.268100000         9.311870000        26.127300000 C.3     362 pp      -0.086043058
     3305 H9           15.333100000         9.344670000        26.351200000 H       362 pp       0.039424942
     3306 H10          13.880900000         8.337350000        26.418800000 H       362 pp       0.039424942
     3307 H11          14.136800000         9.444700000        25.056200000 H       362 pp       0.039424942
     3308 C1           13.503200000        10.151200000        28.396500000 C.3     363 pp      -0.086043058
     3309 C2           14.874300000        10.363600000        29.080300000 C.3     363 pp      -0.074342058
     3310 H4           13.189500000         9.122440000        28.559900000 H       363 pp       0.039424942
     3311 H5           12.761000000        10.801400000        28.854800000 H       363 pp       0.039424942
     3312 H6           15.606600000        10.746900000        28.375000000 H       363 pp       0.043757942
     3313 C8           15.403900000         9.009650000        29.578100000 C.3     363 pp      -0.086043058
     3314 H9           14.753500000         8.613170000        30.358300000 H       363 pp       0.039424942
     3315 H10          15.452900000         8.299980000        28.752400000 H       363 pp       0.039424942
     3316 H11          16.408500000         9.136000000        29.981500000 H       363 pp       0.039424942
     3317 C1           14.771300000        11.315000000        30.291000000 C.3     364 pp      -0.086043058
     3318 C2           14.550400000        12.806800000        29.945500000 C.3     364 pp      -0.074342058
     3319 H4           15.686600000        11.239400000        30.877500000 H       364 pp       0.039424942
     3320 H5           13.947500000        10.959000000        30.909900000 H       364 pp       0.039424942
     3321 H6           13.705200000        12.903000000        29.272700000 H       364 pp       0.043757942
     3322 C8           15.770800000        13.430700000        29.246800000 C.3     364 pp      -0.086043058
     3323 H9           16.686200000        13.189000000        29.787100000 H       364 pp       0.039424942
     3324 H10          15.847200000        13.060900000        28.225700000 H       364 pp       0.039424942
     3325 H11          15.656300000        14.512900000        29.204700000 H       364 pp       0.039424942
     3326 C1           14.266900000        13.588200000        31.247300000 C.3     365 pp      -0.086043058
     3327 C2           13.233800000        14.720700000        31.071500000 C.3     365 pp      -0.074342058
     3328 H4           15.209700000        14.008100000        31.595200000 H       365 pp       0.039424942
     3329 H5           13.904400000        12.919800000        32.027100000 H       365 pp       0.039424942
     3330 H6           13.469400000        15.283700000        30.172300000 H       365 pp       0.043757942
     3331 C8           13.389900000        15.663800000        32.276100000 C.3     365 pp      -0.086043058
     3332 H9           13.205000000        15.126700000        33.206700000 H       365 pp       0.039424942
     3333 H10          14.399100000        16.071500000        32.301600000 H       365 pp       0.039424942
     3334 H11          12.695900000        16.494400000        32.193500000 H       365 pp       0.039424942
     3335 C1           11.796300000        14.138900000        31.018500000 C.3     366 pp      -0.086043058
     3336 C2           10.800900000        14.755700000        30.003900000 C.3     366 pp      -0.074342058
     3337 H4           11.359700000        14.193300000        32.013600000 H       366 pp       0.039424942
     3338 H5           11.857700000        13.079500000        30.775800000 H       366 pp       0.039424942
     3339 H6            9.897270000        14.159500000        30.069400000 H       366 pp       0.043757942
     3340 C8           11.263900000        14.579700000        28.548100000 C.3     366 pp      -0.086043058
     3341 H9           10.441000000        14.819700000        27.876700000 H       366 pp       0.039424942
     3342 H10          12.103500000        15.231000000        28.315200000 H       366 pp       0.039424942
     3343 H11          11.548200000        13.543700000        28.378000000 H       366 pp       0.039424942
     3344 C1           10.415000000        16.232700000        30.240800000 C.3     367 pp      -0.086043058
     3345 C2            9.707550000        16.562200000        31.583900000 C.3     367 pp      -0.074342058
     3346 H4            9.742650000        16.526100000        29.435900000 H       367 pp       0.039424942
     3347 H5           11.320800000        16.822600000        30.139500000 H       367 pp       0.039424942
     3348 H6           10.343600000        16.299500000        32.422800000 H       367 pp       0.043757942
     3349 C8            8.389370000        15.782900000        31.741200000 C.3     367 pp      -0.086043058
     3350 H9            8.583030000        14.716800000        31.841500000 H       367 pp       0.039424942
     3351 H10           7.866400000        16.102300000        32.642100000 H       367 pp       0.039424942
     3352 H11           7.750530000        15.961500000        30.877100000 H       367 pp       0.039424942
     3353 C1            9.353610000        18.065200000        31.663700000 C.3     368 pp      -0.086043058
     3354 C2           10.547600000        19.015900000        31.904300000 C.3     368 pp      -0.074342058
     3355 H4            8.648610000        18.227700000        32.477500000 H       368 pp       0.039424942
     3356 H5            8.847330000        18.332300000        30.740100000 H       368 pp       0.039424942
     3357 H6           11.428000000        18.698500000        31.354900000 H       368 pp       0.043757942
     3358 C8           10.919300000        19.056800000        33.396900000 C.3     368 pp      -0.086043058
     3359 H9           10.111600000        19.506300000        33.975000000 H       368 pp       0.039424942
     3360 H10          11.109400000        18.053300000        33.772200000 H       368 pp       0.039424942
     3361 H11          11.824900000        19.648400000        33.532500000 H       368 pp       0.039424942
     3362 C1           10.189300000        20.448100000        31.470600000 C.3     369 pp      -0.086043058
     3363 C2           10.129100000        20.630700000        29.932500000 C.3     369 pp      -0.074342058
     3364 H4           10.964200000        21.104800000        31.862400000 H       369 pp       0.039424942
     3365 H5            9.254720000        20.733600000        31.948600000 H       369 pp       0.039424942
     3366 H6           10.472800000        19.715200000        29.454300000 H       369 pp       0.043757942
     3367 C8           11.117400000        21.747800000        29.566000000 C.3     369 pp      -0.086043058
     3368 H9           12.127800000        21.437400000        29.821600000 H       369 pp       0.039424942
     3369 H10          11.091400000        21.951500000        28.500600000 H       369 pp       0.039424942
     3370 H11          10.869400000        22.660300000        30.106300000 H       369 pp       0.039424942
     3371 C1            8.708950000        20.976900000        29.414800000 C.3     370 pp      -0.086043058
     3372 C2            8.310830000        20.229900000        28.119500000 C.3     370 pp      -0.074342058
     3373 H4            8.628590000        22.051700000        29.256200000 H       370 pp       0.039424942
     3374 H5            7.987100000        20.699600000        30.173300000 H       370 pp       0.039424942
     3375 H6            8.460580000        19.162500000        28.267800000 H       370 pp       0.043757942
     3376 C8            9.171620000        20.671900000        26.922700000 C.3     370 pp      -0.086043058
     3377 H9           10.188200000        20.315400000        27.048300000 H       370 pp       0.039424942
     3378 H10           8.788610000        20.256500000        25.992000000 H       370 pp       0.039424942
     3379 H11           9.181080000        21.756500000        26.847000000 H       370 pp       0.039424942
     3380 C1            6.829640000        20.453200000        27.740700000 C.3     371 pp      -0.086043058
     3381 C2            5.817440000        19.796400000        28.710400000 C.3     371 pp      -0.074342058
     3382 H4            6.676220000        19.996100000        26.765000000 H       371 pp       0.039424942
     3383 H5            6.634200000        21.518200000        27.624100000 H       371 pp       0.039424942
     3384 H6            6.333800000        19.049400000        29.311200000 H       371 pp       0.043757942
     3385 C8            4.757980000        19.073500000        27.859400000 C.3     371 pp      -0.086043058
     3386 H9            4.308270000        19.769200000        27.150500000 H       371 pp       0.039424942
     3387 H10           5.222450000        18.250500000        27.314900000 H       371 pp       0.039424942
     3388 H11           3.974070000        18.661100000        28.490100000 H       371 pp       0.039424942
     3389 C1            5.135110000        20.833500000        29.633900000 C.3     372 pp      -0.086043058
     3390 C2            4.992890000        20.388600000        31.106900000 C.3     372 pp      -0.074342058
     3391 H4            4.152160000        21.083100000        29.234600000 H       372 pp       0.039424942
     3392 H5            5.737890000        21.740000000        29.638400000 H       372 pp       0.039424942
     3393 H6            5.986930000        20.188000000        31.503300000 H       372 pp       0.043757942
     3394 C8            4.132260000        19.124600000        31.281900000 C.3     372 pp      -0.086043058
     3395 H9            3.178790000        19.241400000        30.766300000 H       372 pp       0.039424942
     3396 H10           4.654370000        18.254900000        30.885700000 H       372 pp       0.039424942
     3397 H11           3.941640000        18.951000000        32.340500000 H       372 pp       0.039424942
     3398 C1            4.341520000        21.537400000        31.904500000 C.3     373 pp      -0.086043058
     3399 C2            4.879660000        21.651500000        33.345100000 C.3     373 pp      -0.074342058
     3400 H4            3.267190000        21.361600000        31.938800000 H       373 pp       0.039424942
     3401 H5            4.500850000        22.477200000        31.388400000 H       373 pp       0.039424942
     3402 H6            5.144060000        20.648500000        33.677500000 H       373 pp       0.043757942
     3403 C8            3.753800000        22.105900000        34.286300000 C.3     373 pp      -0.086043058
     3404 H9            3.299190000        23.028200000        33.924800000 H       373 pp       0.039424942
     3405 H10           2.988700000        21.330700000        34.333700000 H       373 pp       0.039424942
     3406 H11           4.151850000        22.256900000        35.289800000 H       373 pp       0.039424942
     3407 C1            6.181360000        22.488900000        33.445400000 C.3     374 pp      -0.086043058
     3408 C2            6.079950000        24.022900000        33.672000000 C.3     374 pp      -0.074342058
     3409 H4            6.762340000        22.299800000        32.547400000 H       374 pp       0.039424942
     3410 H5            6.733020000        22.069800000        34.285800000 H       374 pp       0.039424942
     3411 H6            5.348500000        24.211300000        34.453300000 H       374 pp       0.043757942
     3412 C8            5.606320000        24.801100000        32.433600000 C.3     374 pp      -0.086043058
     3413 H9            6.148620000        24.478800000        31.544600000 H       374 pp       0.039424942
     3414 H10           4.540360000        24.639200000        32.287800000 H       374 pp       0.039424942
     3415 H11           5.764980000        25.868400000        32.586400000 H       374 pp       0.039424942
     3416 C1            7.382090000        24.630500000        34.247800000 C.3     375 pp      -0.086043058
     3417 C2            8.567950000        24.898200000        33.297200000 C.3     375 pp      -0.074342058
     3418 H4            7.730600000        24.018200000        35.079000000 H       375 pp       0.039424942
     3419 H5            7.105930000        25.597500000        34.667300000 H       375 pp       0.039424942
     3420 H6            8.260020000        25.491100000        32.438400000 H       375 pp       0.043757942
     3421 H7            9.295290000        25.483200000        33.855600000 H       375 pp       0.043757942
     3422 C8            9.298170000        23.642100000        32.816800000 C.3     375 pp      -0.086043058
     3423 H9            8.794470000        23.238100000        31.941500000 H       375 pp       0.039424942
     3424 H10          10.316700000        23.912400000        32.539100000 H       375 pp       0.039424942
     3425 H11           9.333670000        22.895400000        33.609500000 H       375 pp       0.039424942
     3426 C1           17.196200000        13.468600000        40.137474000 C.3     376 pp      -0.086043058
     3427 C2           17.031400000        13.030400000        38.676900000 C.3     376 pp      -0.074342058
     3428 H3           17.742400000        14.410300000        40.188250000 H       376 pp       0.039424942
     3429 H4           16.217400000        13.596800000        40.596269000 H       376 pp       0.039424942
     3430 H5           17.748600000        12.705400000        40.685475000 H       376 pp       0.039424942
     3431 H6           16.607300000        12.027200000        38.658300000 H       376 pp       0.043757942
     3432 C8           18.411200000        12.970500000        38.012300000 C.3     376 pp      -0.086043058
     3433 H9           18.832200000        13.969000000        37.938200000 H       376 pp       0.039424942
     3434 H10          19.076200000        12.351600000        38.611500000 H       376 pp       0.039424942
     3435 H11          18.323800000        12.537600000        37.015500000 H       376 pp       0.039424942
     3436 C1           16.115600000        14.018500000        37.928900000 C.3     377 pp      -0.086043058
     3437 C2           14.648700000        13.547300000        37.920700000 C.3     377 pp      -0.074342058
     3438 H4           16.454900000        14.124300000        36.898900000 H       377 pp       0.039424942
     3439 H5           16.187700000        14.992100000        38.412200000 H       377 pp       0.039424942
     3440 H6           14.441800000        12.987100000        38.830300000 H       377 pp       0.043757942
     3441 C8           14.407300000        12.622200000        36.718000000 C.3     377 pp      -0.086043058
     3442 H9           14.459900000        13.193100000        35.790300000 H       377 pp       0.039424942
     3443 H10          15.156000000        11.831300000        36.694100000 H       377 pp       0.039424942
     3444 H11          13.421300000        12.164500000        36.801800000 H       377 pp       0.039424942
     3445 C1           13.686800000        14.747500000        37.816300000 C.3     378 pp      -0.086043058
     3446 C2           13.294900000        15.317500000        39.195300000 C.3     378 pp      -0.074342058
     3447 H4           12.775200000        14.433600000        37.308600000 H       378 pp       0.039424942
     3448 H5           14.158500000        15.516800000        37.207300000 H       378 pp       0.039424942
     3449 H6           14.133400000        15.247100000        39.882865100 H       378 pp       0.043757942
     3450 C8           12.129500000        14.502200000        39.782700000 C.3     378 pp      -0.086043058
     3451 H9           11.216900000        14.692500000        39.217500000 H       378 pp       0.039424942
     3452 H10          12.346600000        13.436700000        39.749500000 H       378 pp       0.039424942
     3453 H11          11.970800000        14.789600000        40.822040000 H       378 pp       0.039424942
     3454 C1           12.800900000        16.774200000        39.068000000 C.3     379 pp      -0.086043058
     3455 C2           13.884100000        17.876400000        38.987400000 C.3     379 pp      -0.074342058
     3456 H4           12.163500000        16.999900000        39.922571000 H       379 pp       0.039424942
     3457 H5           12.182400000        16.818600000        38.171600000 H       379 pp       0.039424942
     3458 H6           14.534800000        17.682800000        38.141000000 H       379 pp       0.043757942
     3459 C8           14.738600000        17.911500000        40.269570000 C.3     379 pp      -0.086043058
     3460 H9           15.278500000        18.851600000        40.349356000 H       379 pp       0.039424942
     3461 H10          14.105200000        17.797200000        41.149260000 H       379 pp       0.039424942
     3462 H11          15.473000000        17.107500000        40.246944000 H       379 pp       0.039424942
     3463 C1           13.145300000        19.223200000        38.798900000 C.3     380 pp      -0.086043058
     3464 C2           13.976600000        20.398100000        38.231600000 C.3     380 pp      -0.074342058
     3465 H4           12.750300000        19.505200000        39.774000000 H       380 pp       0.039424942
     3466 H5           12.296200000        19.081400000        38.132100000 H       380 pp       0.039424942
     3467 H6           14.948600000        20.426000000        38.712300000 H       380 pp       0.043757942
     3468 C8           13.228300000        21.696200000        38.592500000 C.3     380 pp      -0.086043058
     3469 H9           12.245900000        21.702000000        38.120200000 H       380 pp       0.039424942
     3470 H10          13.104600000        21.767400000        39.673000000 H       380 pp       0.039424942
     3471 H11          13.786600000        22.572300000        38.270300000 H       380 pp       0.039424942
     3472 C1           14.172400000        20.253200000        36.702600000 C.3     381 pp      -0.086043058
     3473 C2           15.083100000        21.341700000        36.084600000 C.3     381 pp      -0.074342058
     3474 H4           13.199400000        20.280800000        36.212900000 H       381 pp       0.039424942
     3475 H5           14.606600000        19.279000000        36.502900000 H       381 pp       0.039424942
     3476 H6           15.549100000        21.930200000        36.869600000 H       381 pp       0.043757942
     3477 C8           14.219800000        22.292600000        35.236600000 C.3     381 pp      -0.086043058
     3478 H9           13.858000000        21.777200000        34.346000000 H       381 pp       0.039424942
     3479 H10          13.365500000        22.642900000        35.811900000 H       381 pp       0.039424942
     3480 H11          14.807100000        23.162000000        34.938600000 H       381 pp       0.039424942
     3481 C1           16.189000000        20.771600000        35.167000000 C.3     382 pp      -0.086043058
     3482 C2           17.588400000        20.644600000        35.813000000 C.3     382 pp      -0.074342058
     3483 H4           16.312100000        21.487900000        34.359500000 H       382 pp       0.039424942
     3484 H5           15.869700000        19.839500000        34.712000000 H       382 pp       0.039424942
     3485 H6           17.777200000        21.582000000        36.332500000 H       382 pp       0.043757942
     3486 C8           18.645700000        20.609900000        34.700400000 C.3     382 pp      -0.086043058
     3487 H9           18.434600000        19.803200000        34.000000000 H       382 pp       0.039424942
     3488 H10          18.644500000        21.558000000        34.164600000 H       382 pp       0.039424942
     3489 H11          19.632900000        20.472200000        35.134700000 H       382 pp       0.039424942
     3490 C1           17.773200000        19.527500000        36.875300000 C.3     383 pp      -0.086043058
     3491 C2           18.250900000        18.122700000        36.434200000 C.3     383 pp      -0.074342058
     3492 H4           16.856700000        19.421700000        37.448300000 H       383 pp       0.039424942
     3493 H5           18.536600000        19.905800000        37.552600000 H       383 pp       0.039424942
     3494 H6           19.071500000        18.224300000        35.737300000 H       383 pp       0.043757942
     3495 C8           17.150800000        17.301900000        35.744700000 C.3     383 pp      -0.086043058
     3496 H9           17.537600000        16.320900000        35.467200000 H       383 pp       0.039424942
     3497 H10          16.297000000        17.179600000        36.409200000 H       383 pp       0.039424942
     3498 H11          16.834100000        17.796100000        34.834100000 H       383 pp       0.039424942
     3499 C1           18.730600000        17.332500000        37.675300000 C.3     384 pp      -0.086043058
     3500 C2           20.264900000        17.283900000        37.869000000 C.3     384 pp      -0.074342058
     3501 H4           18.371400000        16.309800000        37.604400000 H       384 pp       0.039424942
     3502 H5           18.272100000        17.769600000        38.561800000 H       384 pp       0.039424942
     3503 H6           20.659900000        18.293100000        37.775600000 H       384 pp       0.043757942
     3504 C8           20.915800000        16.396700000        36.787400000 C.3     384 pp      -0.086043058
     3505 H9           20.537800000        15.379800000        36.863600000 H       384 pp       0.039424942
     3506 H10          20.711000000        16.765800000        35.787000000 H       384 pp       0.039424942
     3507 H11          21.995200000        16.394700000        36.903200000 H       384 pp       0.039424942
     3508 C1           20.534700000        16.778700000        39.312700000 C.3     385 pp      -0.086043058
     3509 C2           22.010600000        16.506200000        39.697100000 C.3     385 pp      -0.074342058
     3510 H4           19.960800000        15.868800000        39.485200000 H       385 pp       0.039424942
     3511 H5           20.154300000        17.547800000        39.984390000 H       385 pp       0.039424942
     3512 H6           22.659600000        17.111700000        39.072900000 H       385 pp       0.043757942
     3513 C8           22.371500000        15.017900000        39.514600000 C.3     385 pp      -0.086043058
     3514 H9           21.855400000        14.415200000        40.261904000 H       385 pp       0.039424942
     3515 H10          22.094700000        14.653000000        38.531000000 H       385 pp       0.039424942
     3516 H11          23.447500000        14.887700000        39.630400000 H       385 pp       0.039424942
     3517 C1           22.266500000        16.804900000        41.194140000 C.3     386 pp      -0.086043058
     3518 C2           22.705600000        18.245800000        41.544460000 C.3     386 pp      -0.074342058
     3519 H4           23.052400000        16.147200000        41.556630000 H       386 pp       0.039424942
     3520 H5           21.354300000        16.545800000        41.726860000 H       386 pp       0.039424942
     3521 H6           22.080900000        18.944400000        40.989820000 H       386 pp       0.043757942
     3522 C8           24.185400000        18.435500000        41.152050000 C.3     386 pp      -0.086043058
     3523 H9           24.837700000        18.048600000        41.932040000 H       386 pp       0.039424942
     3524 H10          24.418400000        17.920400000        40.224460000 H       386 pp       0.039424942
     3525 H11          24.403900000        19.487400000        41.006670000 H       386 pp       0.039424942
     3526 C1           22.525700000        18.465000000        43.071350000 C.3     387 pp      -0.086043058
     3527 C2           22.444500000        19.931800000        43.552490000 C.3     387 pp      -0.074342058
     3528 H4           23.316200000        17.946000000        43.607470000 H       387 pp       0.039424942
     3529 H5           21.582400000        18.010600000        43.358890000 H       387 pp       0.039424942
     3530 H6           21.800700000        20.446700000        42.848220000 H       387 pp       0.043757942
     3531 C8           23.792900000        20.671800000        43.592340000 C.3     387 pp      -0.086043058
     3532 H9           24.585200000        20.008600000        43.935650000 H       387 pp       0.039424942
     3533 H10          24.043600000        21.048700000        42.605990000 H       387 pp       0.039424942
     3534 H11          23.725400000        21.530400000        44.257540000 H       387 pp       0.039424942
     3535 C1           21.734700000        20.045800000        44.921960000 C.3     388 pp      -0.086043058
     3536 C2           22.476400000        19.403700000        46.126250000 C.3     388 pp      -0.074342058
     3537 H4           20.755700000        19.580100000        44.819270000 H       388 pp       0.039424942
     3538 H5           21.533900000        21.097900000        45.118010000 H       388 pp       0.039424942
     3539 H6           23.313600000        18.809600000        45.774550000 H       388 pp       0.043757942
     3540 C8           21.474700000        18.446400000        46.797520000 C.3     388 pp      -0.086043058
     3541 H9           20.587000000        18.989500000        47.123780000 H       388 pp       0.039424942
     3542 H10          21.181900000        17.670800000        46.091340000 H       388 pp       0.039424942
     3543 H11          21.922300000        17.960400000        47.658040000 H       388 pp       0.039424942
     3544 C1           22.982900000        20.461100000        47.145660000 C.3     389 pp      -0.086043058
     3545 C2           24.338400000        20.194000000        47.848730000 C.3     389 pp      -0.074342058
     3546 H4           22.223000000        20.587200000        47.916290000 H       389 pp       0.039424942
     3547 H5           23.092600000        21.424300000        46.652080000 H       389 pp       0.039424942
     3548 H6           24.467200000        21.031900000        48.530490000 H       389 pp       0.043757942
     3549 C8           25.519700000        20.247500000        46.863450000 C.3     389 pp      -0.086043058
     3550 H9           25.589700000        19.323700000        46.290540000 H       389 pp       0.039424942
     3551 H10          25.398600000        21.088500000        46.183090000 H       389 pp       0.039424942
     3552 H11          26.449100000        20.395500000        47.411050000 H       389 pp       0.039424942
     3553 C1           24.340000000        18.895600000        48.684530000 C.3     390 pp      -0.086043058
     3554 C2           25.532300000        18.710400000        49.643480000 C.3     390 pp      -0.074342058
     3555 H4           24.334800000        18.040700000        48.009590000 H       390 pp       0.039424942
     3556 H5           23.431600000        18.872100000        49.284700000 H       390 pp       0.039424942
     3557 H6           25.451600000        17.714700000        50.078200000 H       390 pp       0.043757942
     3558 H7           26.476500000        18.762400000        49.104800000 H       390 pp       0.043757942
     3559 C8           25.546000000        19.717800000        50.800800000 C.3     390 pp      -0.086043058
     3560 H9           25.824500000        20.707400000        50.441100000 H       390 pp       0.039424942
     3561 H10          24.564100000        19.760900000        51.272100000 H       390 pp       0.039424942
     3562 H11          26.279900000        19.395400000        51.539200000 H       390 pp       0.039424942
     3563 C1           14.064300000        29.442300000        19.374900000 C.3     391 pp      -0.086043058
     3564 C2           15.181300000        29.261000000        20.406200000 C.3     391 pp      -0.074342058
     3565 H3           14.312800000        28.898100000        18.464300000 H       391 pp       0.039424942
     3566 H4           13.121200000        29.071700000        19.774700000 H       391 pp       0.039424942
     3567 H5           13.965600000        30.499800000        19.138200000 H       391 pp       0.039424942
     3568 H6           16.079200000        29.736400000        20.011200000 H       391 pp       0.043757942
     3569 C8           15.447800000        27.759500000        20.596600000 C.3     391 pp      -0.086043058
     3570 H9           14.528400000        27.248100000        20.876700000 H       391 pp       0.039424942
     3571 H10          15.817100000        27.338500000        19.663000000 H       391 pp       0.039424942
     3572 H11          16.195500000        27.598600000        21.372000000 H       391 pp       0.039424942
     3573 C1           14.762800000        29.927800000        21.730300000 C.3     392 pp      -0.086043058
     3574 C2           15.991200000        30.367700000        22.554400000 C.3     392 pp      -0.074342058
     3575 H4           14.168100000        29.216700000        22.301900000 H       392 pp       0.039424942
     3576 H5           14.132900000        30.788000000        21.514500000 H       392 pp       0.039424942
     3577 H6           16.814700000        29.720700000        22.261200000 H       392 pp       0.043757942
     3578 C8           15.778500000        30.056500000        24.042500000 C.3     392 pp      -0.086043058
     3579 H9           14.951600000        30.632100000        24.453400000 H       392 pp       0.039424942
     3580 H10          15.564400000        28.994800000        24.166100000 H       392 pp       0.039424942
     3581 H11          16.694800000        30.273500000        24.585400000 H       392 pp       0.039424942
     3582 C1           16.461600000        31.802500000        22.186700000 C.3     393 pp      -0.086043058
     3583 C2           16.156400000        33.042700000        23.067500000 C.3     393 pp      -0.074342058
     3584 H4           16.090200000        32.031400000        21.188300000 H       393 pp       0.039424942
     3585 H5           17.545000000        31.749100000        22.095800000 H       393 pp       0.039424942
     3586 H6           16.571500000        33.866900000        22.492300000 H       393 pp       0.043757942
     3587 C8           16.930200000        33.092800000        24.397400000 C.3     393 pp      -0.086043058
     3588 H9           17.018400000        34.132900000        24.711400000 H       393 pp       0.039424942
     3589 H10          16.414500000        32.541600000        25.181400000 H       393 pp       0.039424942
     3590 H11          17.932400000        32.685700000        24.266400000 H       393 pp       0.039424942
     3591 C1           14.657800000        33.345600000        23.292000000 C.3     394 pp      -0.086043058
     3592 C2           14.117900000        34.458800000        22.369300000 C.3     394 pp      -0.074342058
     3593 H4           14.502400000        33.657600000        24.324100000 H       394 pp       0.039424942
     3594 H5           14.085400000        32.439800000        23.135300000 H       394 pp       0.039424942
     3595 H6           14.563500000        34.349900000        21.382200000 H       394 pp       0.043757942
     3596 C8           14.509000000        35.828100000        22.957700000 C.3     394 pp      -0.086043058
     3597 H9           14.275800000        36.619900000        22.250400000 H       394 pp       0.039424942
     3598 H10          13.971000000        36.005100000        23.888300000 H       394 pp       0.039424942
     3599 H11          15.577000000        35.867800000        23.160900000 H       394 pp       0.039424942
     3600 C1           12.587300000        34.288000000        22.224600000 C.3     395 pp      -0.086043058
     3601 C2           11.904700000        35.319800000        21.292200000 C.3     395 pp      -0.074342058
     3602 H4           12.124400000        34.329200000        23.209800000 H       395 pp       0.039424942
     3603 H5           12.421400000        33.292300000        21.817600000 H       395 pp       0.039424942
     3604 H6           12.650700000        35.780800000        20.647900000 H       395 pp       0.043757942
     3605 C8           11.227000000        36.426700000        22.121700000 C.3     395 pp      -0.086043058
     3606 H9           10.389500000        36.014400000        22.685900000 H       395 pp       0.039424942
     3607 H10          11.930700000        36.872000000        22.818500000 H       395 pp       0.039424942
     3608 H11          10.865200000        37.215500000        21.460800000 H       395 pp       0.039424942
     3609 C1           10.804900000        34.680700000        20.412300000 C.3     396 pp      -0.086043058
     3610 C2           11.198500000        34.473800000        18.931800000 C.3     396 pp      -0.074342058
     3611 H4            9.949600000        35.353300000        20.425600000 H       396 pp       0.039424942
     3612 H5           10.467400000        33.737600000        20.838600000 H       396 pp       0.039424942
     3613 H6           11.618900000        35.402500000        18.544900000 H       396 pp       0.043757942
     3614 C8            9.893690000        34.192300000        18.162900000 C.3     396 pp      -0.086043058
     3615 H9            9.444250000        33.265200000        18.519100000 H       396 pp       0.039424942
     3616 H10           9.191610000        35.011500000        18.313100000 H       396 pp       0.039424942
     3617 H11          10.076300000        34.119900000        17.093100000 H       396 pp       0.039424942
     3618 C1           12.246000000        33.343700000        18.783800000 C.3     397 pp      -0.086043058
     3619 C2           12.696900000        33.079400000        17.325100000 C.3     397 pp      -0.074342058
     3620 H4           11.848800000        32.422300000        19.209300000 H       397 pp       0.039424942
     3621 H5           13.106800000        33.643300000        19.373100000 H       397 pp       0.039424942
     3622 H6           12.369200000        33.915100000        16.712800000 H       397 pp       0.043757942
     3623 C8           12.023100000        31.810700000        16.774000000 C.3     397 pp      -0.086043058
     3624 H9           12.396800000        30.925000000        17.285000000 H       397 pp       0.039424942
     3625 H10          10.944600000        31.858600000        16.907000000 H       397 pp       0.039424942
     3626 H11          12.233100000        31.727000000        15.707900000 H       397 pp       0.039424942
     3627 C1           14.231600000        32.920900000        17.168900000 C.3     398 pp      -0.086043058
     3628 C2           14.857200000        34.107900000        16.407100000 C.3     398 pp      -0.074342058
     3629 H4           14.449300000        32.011000000        16.611300000 H       398 pp       0.039424942
     3630 H5           14.703700000        32.819400000        18.143800000 H       398 pp       0.039424942
     3631 H6           14.379300000        35.021500000        16.740500000 H       398 pp       0.043757942
     3632 C8           14.616400000        33.958200000        14.893000000 C.3     398 pp      -0.086043058
     3633 H9           15.125400000        33.070900000        14.516200000 H       398 pp       0.039424942
     3634 H10          13.553000000        33.869200000        14.679200000 H       398 pp       0.039424942
     3635 H11          14.993900000        34.837600000        14.370800000 H       398 pp       0.039424942
     3636 C1           16.382400000        34.195200000        16.645800000 C.3     399 pp      -0.086043058
     3637 C2           16.873800000        35.388400000        17.495900000 C.3     399 pp      -0.074342058
     3638 H4           16.886800000        34.261900000        15.682100000 H       399 pp       0.039424942
     3639 H5           16.724100000        33.274100000        17.114800000 H       399 pp       0.039424942
     3640 H6           17.961000000        35.343900000        17.432800000 H       399 pp       0.043757942
     3641 C8           16.559500000        35.187200000        18.988500000 C.3     399 pp      -0.086043058
     3642 H9           16.959200000        36.019600000        19.565500000 H       399 pp       0.039424942
     3643 H10          15.489900000        35.095000000        19.161900000 H       399 pp       0.039424942
     3644 H11          17.039400000        34.271200000        19.330700000 H       399 pp       0.039424942
     3645 C1           16.503300000        36.761600000        16.876700000 C.3     400 pp      -0.086043058
     3646 C2           15.358200000        37.571100000        17.539600000 C.3     400 pp      -0.074342058
     3647 H4           16.232500000        36.581500000        15.838700000 H       400 pp       0.039424942
     3648 H5           17.408800000        37.365100000        16.844600000 H       400 pp       0.039424942
     3649 H6           14.689700000        36.901300000        18.063900000 H       400 pp       0.043757942
     3650 C8           14.537100000        38.243300000        16.427600000 C.3     400 pp      -0.086043058
     3651 H9           14.056300000        37.485200000        15.809100000 H       400 pp       0.039424942
     3652 H10          13.760400000        38.865200000        16.868000000 H       400 pp       0.039424942
     3653 H11          15.181600000        38.861800000        15.802800000 H       400 pp       0.039424942
     3654 C1           15.881300000        38.665600000        18.499400000 C.3     401 pp      -0.086043058
     3655 C2           15.191200000        38.760300000        19.880400000 C.3     401 pp      -0.074342058
     3656 H4           15.810200000        39.633600000        18.003300000 H       401 pp       0.039424942
     3657 H5           16.932400000        38.469600000        18.697900000 H       401 pp       0.039424942
     3658 H6           15.474900000        37.879900000        20.453600000 H       401 pp       0.043757942
     3659 C8           13.655800000        38.855200000        19.826500000 C.3     401 pp      -0.086043058
     3660 H9           13.363700000        39.730500000        19.252700000 H       401 pp       0.039424942
     3661 H10          13.213500000        37.970100000        19.377000000 H       401 pp       0.039424942
     3662 H11          13.258900000        38.939900000        20.835700000 H       401 pp       0.039424942
     3663 C1           15.746300000        40.030200000        20.561400000 C.3     402 pp      -0.086043058
     3664 C2           15.666900000        40.029278000        22.104800000 C.3     402 pp      -0.074342058
     3665 H4           15.222100000        40.902090000        20.171500000 H       402 pp       0.039424942
     3666 H5           16.785200000        40.133795000        20.273000000 H       402 pp       0.039424942
     3667 H6           15.337600000        39.059700000        22.472200000 H       402 pp       0.043757942
     3668 C8           14.653600000        41.088700000        22.563100000 C.3     402 pp      -0.086043058
     3669 H9           14.986800000        42.071530000        22.239100000 H       402 pp       0.039424942
     3670 H10          13.670400000        40.887010000        22.142400000 H       402 pp       0.039424942
     3671 H11          14.573600000        41.083600000        23.649200000 H       402 pp       0.039424942
     3672 C1           17.029300000        40.393772000        22.734300000 C.3     403 pp      -0.086043058
     3673 C2           18.083000000        39.269700000        22.636700000 C.3     403 pp      -0.074342058
     3674 H4           16.882700000        40.623282000        23.789300000 H       403 pp       0.039424942
     3675 H5           17.394600000        41.297930000        22.256900000 H       403 pp       0.039424942
     3676 H6           17.897400000        38.647200000        21.767100000 H       403 pp       0.043757942
     3677 C8           17.939800000        38.359000000        23.867400000 C.3     403 pp      -0.086043058
     3678 H9           18.284500000        38.876200000        24.762600000 H       403 pp       0.039424942
     3679 H10          16.899500000        38.068500000        24.003800000 H       403 pp       0.039424942
     3680 H11          18.531000000        37.455200000        23.726500000 H       403 pp       0.039424942
     3681 C1           19.527500000        39.831216700        22.623900000 C.3     404 pp      -0.086043058
     3682 C2           20.176600000        40.212846000        21.267500000 C.3     404 pp      -0.074342058
     3683 H4           20.176400000        39.074000000        23.060100000 H       404 pp       0.039424942
     3684 H5           19.568000000        40.695086000        23.286900000 H       404 pp       0.039424942
     3685 H6           21.231300000        40.362520000        21.496100000 H       404 pp       0.043757942
     3686 C8           19.673800000        41.551720000        20.701600000 C.3     404 pp      -0.086043058
     3687 H9           18.696900000        41.437690000        20.242600000 H       404 pp       0.039424942
     3688 H10          19.616600000        42.295100000        21.495800000 H       404 pp       0.039424942
     3689 H11          20.368300000        41.913450000        19.946500000 H       404 pp       0.039424942
     3690 C1           20.097300000        39.078600000        20.223700000 C.3     405 pp      -0.086043058
     3691 C2           21.053500000        39.282000000        19.039300000 C.3     405 pp      -0.074342058
     3692 H4           19.088800000        39.005300000        19.824500000 H       405 pp       0.039424942
     3693 H5           20.352900000        38.143100000        20.714800000 H       405 pp       0.039424942
     3694 H6           20.672200000        40.075866000        18.400500000 H       405 pp       0.043757942
     3695 H7           22.047000000        39.546700000        19.395600000 H       405 pp       0.043757942
     3696 C8           21.159200000        38.002300000        18.203800000 C.3     405 pp      -0.086043058
     3697 H9           20.165200000        37.676500000        17.897700000 H       405 pp       0.039424942
     3698 H10          21.761600000        38.203300000        17.318000000 H       405 pp       0.039424942
     3699 H11          21.638200000        37.216700000        18.787100000 H       405 pp       0.039424942
     3700 C1           21.512700000        31.579900000         8.587220000 C.3     406 pp      -0.086043058
     3701 C2           23.023700000        31.753600000         8.379030000 C.3     406 pp      -0.074342058
     3702 H3           21.113900000        32.359100000         9.232100000 H       406 pp       0.039424942
     3703 H4           21.006000000        31.606600000         7.623090000 H       406 pp       0.039424942
     3704 H5           21.325500000        30.611800000         9.051510000 H       406 pp       0.039424942
     3705 H6           23.322000000        30.943900000         7.713510000 H       406 pp       0.043757942
     3706 C8           23.778700000        31.484600000         9.692090000 C.3     406 pp      -0.086043058
     3707 H9           23.740600000        30.416900000         9.907910000 H       406 pp       0.039424942
     3708 H10          24.823100000        31.782100000         9.601900000 H       406 pp       0.039424942
     3709 H11          23.317200000        32.016300000        10.519700000 H       406 pp       0.039424942
     3710 C1           23.448900000        33.047300000         7.634930000 C.3     407 pp      -0.086043058
     3711 C2           23.012300000        34.462400000         8.103580000 C.3     407 pp      -0.074342058
     3712 H4           23.130100000        32.929600000         6.600890000 H       407 pp       0.039424942
     3713 H5           24.534800000        33.047200000         7.615270000 H       407 pp       0.039424942
     3714 H6           23.731100000        35.150400000         7.671250000 H       407 pp       0.043757942
     3715 C8           23.126800000        34.701700000         9.614790000 C.3     407 pp      -0.086043058
     3716 H9           23.032200000        35.767500000         9.820860000 H       407 pp       0.039424942
     3717 H10          22.343300000        34.170300000        10.146300000 H       407 pp       0.039424942
     3718 H11          24.101800000        34.369000000         9.967950000 H       407 pp       0.039424942
     3719 C1           21.615700000        34.875100000         7.584830000 C.3     408 pp      -0.086043058
     3720 C2           21.589500000        35.907600000         6.434840000 C.3     408 pp      -0.074342058
     3721 H4           21.039900000        35.286600000         8.412080000 H       408 pp       0.039424942
     3722 H5           21.085200000        33.995700000         7.230610000 H       408 pp       0.039424942
     3723 H6           20.554900000        35.924100000         6.108650000 H       408 pp       0.043757942
     3724 C8           22.404600000        35.479700000         5.203140000 C.3     408 pp      -0.086043058
     3725 H9           23.475900000        35.515600000         5.394650000 H       408 pp       0.039424942
     3726 H10          22.126800000        34.467500000         4.923090000 H       408 pp       0.039424942
     3727 H11          22.174800000        36.144900000         4.371250000 H       408 pp       0.039424942
     3728 C1           22.001200000        37.329600000         6.879070000 C.3     409 pp      -0.086043058
     3729 C2           20.886700000        38.396900000         6.795890000 C.3     409 pp      -0.074342058
     3730 H4           22.832300000        37.666500000         6.260240000 H       409 pp       0.039424942
     3731 H5           22.361700000        37.299500000         7.905650000 H       409 pp       0.039424942
     3732 H6           21.351700000        39.322800000         7.127440000 H       409 pp       0.043757942
     3733 C8           19.746100000        38.096200000         7.783260000 C.3     409 pp      -0.086043058
     3734 H9           19.101100000        37.302500000         7.408750000 H       409 pp       0.039424942
     3735 H10          20.160500000        37.796300000         8.744320000 H       409 pp       0.039424942
     3736 H11          19.152500000        38.995800000         7.934470000 H       409 pp       0.039424942
     3737 C1           20.381200000        38.615700000         5.349930000 C.3     410 pp      -0.086043058
     3738 C2           19.603100000        39.938727000         5.169800000 C.3     410 pp      -0.074342058
     3739 H4           19.736300000        37.793500000         5.047490000 H       410 pp       0.039424942
     3740 H5           21.243400000        38.616200000         4.686950000 H       410 pp       0.039424942
     3741 H6           19.693000000        40.555405000         6.061010000 H       410 pp       0.043757942
     3742 C8           18.112200000        39.635300000         4.959710000 C.3     410 pp      -0.086043058
     3743 H9           17.962100000        39.127300000         4.006510000 H       410 pp       0.039424942
     3744 H10          17.740100000        39.005000000         5.765960000 H       410 pp       0.039424942
     3745 H11          17.547100000        40.567467000         4.959930000 H       410 pp       0.039424942
     3746 C1           20.102500000        40.731209000         3.944600000 C.3     411 pp      -0.086043058
     3747 C2           21.445800000        41.451890000         4.192170000 C.3     411 pp      -0.074342058
     3748 H4           19.358400000        41.483030000         3.683470000 H       411 pp       0.039424942
     3749 H5           20.182700000        40.047105000         3.102320000 H       411 pp       0.039424942
     3750 H6           22.053800000        40.883060000         4.887270000 H       411 pp       0.043757942
     3751 C8           21.185100000        42.820650000         4.841300000 C.3     411 pp      -0.086043058
     3752 H9           20.631200000        43.465410000         4.160070000 H       411 pp       0.039424942
     3753 H10          20.618500000        42.697140000         5.761880000 H       411 pp       0.039424942
     3754 H11          22.130500000        43.297610000         5.089140000 H       411 pp       0.039424942
     3755 C1           22.209300000        41.677020000         2.868350000 C.3     412 pp      -0.086043058
     3756 C2           22.951500000        40.442800000         2.301990000 C.3     412 pp      -0.074342058
     3757 H4           22.941400000        42.469510000         3.012860000 H       412 pp       0.039424942
     3758 H5           21.484900000        42.025430000         2.135940000 H       412 pp       0.039424942
     3759 H6           22.251600000        39.623500000         2.159930000 H       412 pp       0.043757942
     3760 C8           24.067400000        39.980622000         3.261520000 C.3     412 pp      -0.086043058
     3761 H9           24.596200000        40.841320000         3.670840000 H       412 pp       0.039424942
     3762 H10          23.641200000        39.400300000         4.078010000 H       412 pp       0.039424942
     3763 H11          24.784500000        39.346700000         2.743630000 H       412 pp       0.039424942
     3764 C1           23.578800000        40.810630000         0.939530000 C.3     413 pp      -0.086043058
     3765 C2           23.763900000        39.593800000         0.002184970 C.3     413 pp      -0.074342058
     3766 H4           24.552700000        41.246640000         1.151350000 H       413 pp       0.039424942
     3767 H5           22.999100000        41.574570000         0.430734000 H       413 pp       0.039424942
     3768 H6           24.077500000        38.751300000         0.615065000 H       413 pp       0.043757942
     3769 C8           24.947700000        39.859723100        -0.939300000 C.3     413 pp      -0.086043058
     3770 H9           24.736200000        40.702732000        -1.594300000 H       413 pp       0.039424942
     3771 H10          25.843100000        40.075707000        -0.357400000 H       413 pp       0.039424942
     3772 H11          25.148800000        38.969500000        -1.532600000 H       413 pp       0.039424942
     3773 C1           22.509300000        39.087300000        -0.763200000 C.3     414 pp      -0.086043058
     3774 C2           21.747300000        40.049766000        -1.713600000 C.3     414 pp      -0.074342058
     3775 H4           21.799800000        38.701700000        -0.033200000 H       414 pp       0.039424942
     3776 H5           22.847700000        38.235300000        -1.344200000 H       414 pp       0.039424942
     3777 H6           22.387700000        40.866240000        -2.037900000 H       414 pp       0.043757942
     3778 C8           20.533500000        40.626811000        -0.961700000 C.3     414 pp      -0.086043058
     3779 H9           19.788100000        39.846624200        -0.805700000 H       414 pp       0.039424942
     3780 H10          20.821900000        41.016710000         0.007844860 H       414 pp       0.039424942
     3781 H11          20.089400000        41.438030000        -1.538200000 H       414 pp       0.039424942
     3782 C1           21.143600000        39.313100000        -2.940700000 C.3     415 pp      -0.086043058
     3783 C2           21.931400000        39.301400000        -4.272500000 C.3     415 pp      -0.074342058
     3784 H4           20.183400000        39.768700000        -3.172100000 H       415 pp       0.039424942
     3785 H5           20.927400000        38.283900000        -2.661400000 H       415 pp       0.039424942
     3786 H6           21.327600000        38.705200000        -4.953900000 H       415 pp       0.043757942
     3787 C8           23.286600000        38.590400000        -4.140000000 C.3     415 pp      -0.086043058
     3788 H9           23.731100000        38.431800000        -5.119200000 H       415 pp       0.039424942
     3789 H10          23.968000000        39.191500000        -3.547700000 H       415 pp       0.039424942
     3790 H11          23.147400000        37.618200000        -3.668700000 H       415 pp       0.039424942
     3791 C1           22.084700000        40.713921000        -4.883100000 C.3     416 pp      -0.086043058
     3792 C2           21.725600000        40.808081000        -6.386300000 C.3     416 pp      -0.074342058
     3793 H4           23.104500000        41.066820000        -4.729300000 H       416 pp       0.039424942
     3794 H5           21.409500000        41.379910000        -4.351100000 H       416 pp       0.039424942
     3795 H6           20.710900000        40.443283000        -6.520100000 H       416 pp       0.043757942
     3796 C8           22.649100000        39.947126000        -7.264100000 C.3     416 pp      -0.086043058
     3797 H9           23.693700000        40.169258000        -7.045000000 H       416 pp       0.039424942
     3798 H10          22.455400000        38.890200000        -7.091300000 H       416 pp       0.039424942
     3799 H11          22.454500000        40.145987000        -8.314400000 H       416 pp       0.039424942
     3800 C1           21.837100000        42.283280000        -6.848300000 C.3     417 pp      -0.086043058
     3801 C2           20.559500000        42.936590000        -7.430000000 C.3     417 pp      -0.074342058
     3802 H4           22.634600000        42.369340000        -7.583600000 H       417 pp       0.039424942
     3803 H5           22.145500000        42.890620000        -5.998800000 H       417 pp       0.039424942
     3804 H6           20.797900000        43.982840000        -7.608500000 H       417 pp       0.043757942
     3805 C8           19.418500000        42.952980000        -6.403100000 C.3     417 pp      -0.086043058
     3806 H9           18.653000000        43.659630000        -6.723600000 H       417 pp       0.039424942
     3807 H10          18.971200000        41.966810000        -6.317800000 H       417 pp       0.039424942
     3808 H11          19.793000000        43.264370000        -5.430700000 H       417 pp       0.039424942
     3809 C1           20.025700000        42.321240000        -8.744900000 C.3     418 pp      -0.086043058
     3810 C2           20.928800000        42.452810000        -9.990800000 C.3     418 pp      -0.074342058
     3811 H4           19.076000000        42.803400000        -8.976500000 H       418 pp       0.039424942
     3812 H5           19.832700000        41.263770000        -8.575200000 H       418 pp       0.039424942
     3813 H6           21.860300000        41.922760000        -9.813500000 H       418 pp       0.043757942
     3814 C8           21.272500000        43.911520000       -10.334500000 C.3     418 pp      -0.086043058
     3815 H9           20.371500000        44.525390000       -10.322600000 H       418 pp       0.039424942
     3816 H10          21.989400000        44.304700000        -9.614900000 H       418 pp       0.039424942
     3817 H11          21.727700000        43.959560000       -11.323900000 H       418 pp       0.039424942
     3818 C1           20.204900000        41.819180000       -11.198600000 C.3     419 pp      -0.086043058
     3819 C2           21.163700000        40.978400000       -12.060100000 C.3     419 pp      -0.074342058
     3820 H4           19.775100000        42.614040000       -11.807700000 H       419 pp       0.039424942
     3821 H5           19.387400000        41.180840000       -10.865500000 H       419 pp       0.039424942
     3822 H6           22.115500000        41.500260000       -12.155500000 H       419 pp       0.043757942
     3823 C8           20.574500000        40.817310000       -13.467800000 C.3     419 pp      -0.086043058
     3824 H9           19.554300000        40.439221000       -13.404600000 H       419 pp       0.039424942
     3825 H10          20.568100000        41.783130000       -13.972300000 H       419 pp       0.039424942
     3826 H11          21.184000000        40.124554000       -14.048200000 H       419 pp       0.039424942
     3827 C1           21.380500000        39.590000000       -11.427200000 C.3     420 pp      -0.086043058
     3828 C2           22.845100000        39.151500000       -11.554900000 C.3     420 pp      -0.074342058
     3829 H4           20.738000000        38.859800000       -11.919100000 H       420 pp       0.039424942
     3830 H5           21.121600000        39.614500000       -10.370500000 H       420 pp       0.039424942
     3831 H6           23.116800000        39.082400000       -12.607600000 H       420 pp       0.043757942
     3832 H7           23.493000000        39.875996400       -11.061100000 H       420 pp       0.043757942
     3833 C8           23.046100000        37.787900000       -10.886500000 C.3     420 pp      -0.086043058
     3834 H9           22.831500000        37.862900000        -9.820900000 H       420 pp       0.039424942
     3835 H10          22.381700000        37.051900000       -11.337100000 H       420 pp       0.039424942
     3836 H11          24.079900000        37.470600000       -11.020500000 H       420 pp       0.039424942
     3837 C1           19.526900000        30.335300000        41.998200000 C.3     421 pp      -0.086043058
     3838 C2           20.289900000        31.580300000        42.469300000 C.3     421 pp      -0.074342058
     3839 H3           19.230700000        30.457100000        40.956010000 H       421 pp       0.039424942
     3840 H4           20.170800000        29.459300000        42.077920000 H       421 pp       0.039424942
     3841 H5           18.639000000        30.186700000        42.613030000 H       421 pp       0.039424942
     3842 H6           21.131000000        31.729200000        41.798540000 H       421 pp       0.043757942
     3843 C8           20.841000000        31.330500000        43.880190000 C.3     421 pp      -0.086043058
     3844 H9           20.032900000        31.062100000        44.560970000 H       421 pp       0.039424942
     3845 H10          21.565200000        30.516400000        43.848190000 H       421 pp       0.039424942
     3846 H11          21.337900000        32.225700000        44.247220000 H       421 pp       0.039424942
     3847 C1           19.360600000        32.812000000        42.450200000 C.3     422 pp      -0.086043058
     3848 C2           20.090900000        34.119700000        42.074100000 C.3     422 pp      -0.074342058
     3849 H4           18.911700000        32.912500000        43.437350000 H       422 pp       0.039424942
     3850 H5           18.555200000        32.647600000        41.735160000 H       422 pp       0.039424942
     3851 H6           21.095300000        34.091900000        42.486660000 H       422 pp       0.043757942
     3852 C8           19.341900000        35.303900000        42.708300000 C.3     422 pp      -0.086043058
     3853 H9           18.325800000        35.358200000        42.317420000 H       422 pp       0.039424942
     3854 H10          19.300600000        35.179100000        43.789640000 H       422 pp       0.039424942
     3855 H11          19.860600000        36.237200000        42.497460000 H       422 pp       0.039424942
     3856 C1           20.136900000        34.251800000        40.533487000 C.3     423 pp      -0.086043058
     3857 C2           21.034100000        35.369200000        39.951630000 C.3     423 pp      -0.074342058
     3858 H4           19.122000000        34.441200000        40.184475000 H       423 pp       0.039424942
     3859 H5           20.446500000        33.303100000        40.108535000 H       423 pp       0.039424942
     3860 H6           20.622800000        36.320600000        40.283001000 H       423 pp       0.043757942
     3861 C8           20.858400000        35.386000000        38.425000000 C.3     423 pp      -0.086043058
     3862 H9           20.952200000        34.385700000        38.014000000 H       423 pp       0.039424942
     3863 H10          19.865200000        35.766800000        38.186800000 H       423 pp       0.039424942
     3864 H11          21.598100000        36.034300000        37.960300000 H       423 pp       0.039424942
     3865 C1           22.521300000        35.390600000        40.392918000 C.3     424 pp      -0.086043058
     3866 C2           23.343700000        34.078700000        40.442734000 C.3     424 pp      -0.074342058
     3867 H4           22.513800000        35.807200000        41.399010000 H       424 pp       0.039424942
     3868 H5           23.062900000        36.102500000        39.773100000 H       424 pp       0.039424942
     3869 H6           22.746900000        33.283300000        40.870380000 H       424 pp       0.043757942
     3870 C8           24.498600000        34.367100000        41.421870000 C.3     424 pp      -0.086043058
     3871 H9           24.994900000        35.299700000        41.151010000 H       424 pp       0.039424942
     3872 H10          24.107500000        34.452400000        42.435920000 H       424 pp       0.039424942
     3873 H11          25.234300000        33.567100000        41.412430000 H       424 pp       0.039424942
     3874 C1           23.925100000        33.649100000        39.069600000 C.3     425 pp      -0.086043058
     3875 C2           23.916700000        32.130500000        38.740900000 C.3     425 pp      -0.074342058
     3876 H4           24.955600000        33.998500000        39.011000000 H       425 pp       0.039424942
     3877 H5           23.382400000        34.158700000        38.278600000 H       425 pp       0.039424942
     3878 H6           24.420800000        32.042700000        37.779500000 H       425 pp       0.043757942
     3879 C8           22.475500000        31.632600000        38.521700000 C.3     425 pp      -0.086043058
     3880 H9           22.470600000        30.640900000        38.080000000 H       425 pp       0.039424942
     3881 H10          21.931600000        31.595300000        39.459700000 H       425 pp       0.039424942
     3882 H11          21.960200000        32.293900000        37.830400000 H       425 pp       0.039424942
     3883 C1           24.741300000        31.317400000        39.774900000 C.3     426 pp      -0.086043058
     3884 C2           24.917300000        29.789800000        39.594700000 C.3     426 pp      -0.074342058
     3885 H4           24.316700000        31.471000000        40.763614000 H       426 pp       0.039424942
     3886 H5           25.746200000        31.738900000        39.776300000 H       426 pp       0.039424942
     3887 H6           25.835400000        29.546100000        40.129025000 H       426 pp       0.043757942
     3888 C8           25.194500000        29.370700000        38.140900000 C.3     426 pp      -0.086043058
     3889 H9           24.311000000        29.438700000        37.514000000 H       426 pp       0.039424942
     3890 H10          25.970600000        30.015200000        37.728500000 H       426 pp       0.039424942
     3891 H11          25.564600000        28.349500000        38.126700000 H       426 pp       0.039424942
     3892 C1           23.806100000        29.053100000        40.379465000 C.3     427 pp      -0.086043058
     3893 C2           23.652400000        27.524300000        40.207984000 C.3     427 pp      -0.074342058
     3894 H4           22.838500000        29.506400000        40.192036000 H       427 pp       0.039424942
     3895 H5           24.058800000        29.244900000        41.422030000 H       427 pp       0.039424942
     3896 H6           24.599500000        27.086900000        39.900048400 H       427 pp       0.043757942
     3897 C8           22.574500000        27.240700000        39.147900000 C.3     427 pp      -0.086043058
     3898 H9           21.590000000        27.507700000        39.531300000 H       427 pp       0.039424942
     3899 H10          22.765700000        27.819400000        38.248600000 H       427 pp       0.039424942
     3900 H11          22.589000000        26.188000000        38.876600000 H       427 pp       0.039424942
     3901 C1           23.284000000        26.964500000        41.603540000 C.3     428 pp      -0.086043058
     3902 C2           22.505700000        25.635800000        41.740240000 C.3     428 pp      -0.074342058
     3903 H4           22.645300000        27.706100000        42.082430000 H       428 pp       0.039424942
     3904 H5           24.208000000        26.885800000        42.176830000 H       428 pp       0.039424942
     3905 H6           21.531400000        25.772100000        41.276970000 H       428 pp       0.043757942
     3906 C8           22.293600000        25.467500000        43.261340000 C.3     428 pp      -0.086043058
     3907 H9           21.756300000        26.327100000        43.661500000 H       428 pp       0.039424942
     3908 H10          21.705400000        24.585500000        43.489840000 H       428 pp       0.039424942
     3909 H11          23.254000000        25.385600000        43.770680000 H       428 pp       0.039424942
     3910 C1           23.205100000        24.386500000        41.142630000 C.3     429 pp      -0.086043058
     3911 C2           22.239400000        23.423700000        40.402932000 C.3     429 pp      -0.074342058
     3912 H4           23.720200000        23.845600000        41.936370000 H       429 pp       0.039424942
     3913 H5           23.950300000        24.722300000        40.429793000 H       429 pp       0.039424942
     3914 H6           21.790500000        23.974900000        39.580200000 H       429 pp       0.043757942
     3915 C8           21.136500000        22.940800000        41.360890000 C.3     429 pp      -0.086043058
     3916 H9           20.419600000        23.735800000        41.545050000 H       429 pp       0.039424942
     3917 H10          20.599200000        22.092200000        40.953330000 H       429 pp       0.039424942
     3918 H11          21.582500000        22.640900000        42.303470000 H       429 pp       0.039424942
     3919 C1           22.984900000        22.182800000        39.846112500 C.3     430 pp      -0.086043058
     3920 C2           22.603600000        21.736800000        38.408900000 C.3     430 pp      -0.074342058
     3921 H4           22.807400000        21.348000000        40.518033000 H       430 pp       0.039424942
     3922 H5           24.051600000        22.397400000        39.859518600 H       430 pp       0.039424942
     3923 H6           22.939600000        22.510700000        37.725200000 H       430 pp       0.043757942
     3924 C8           21.082800000        21.527200000        38.257300000 C.3     430 pp      -0.086043058
     3925 H9           20.842300000        21.138000000        37.275100000 H       430 pp       0.039424942
     3926 H10          20.727600000        20.813800000        38.999800000 H       430 pp       0.039424942
     3927 H11          20.547600000        22.466400000        38.371300000 H       430 pp       0.039424942
     3928 C1           23.311800000        20.399600000        38.066600000 C.3     431 pp      -0.086043058
     3929 C2           23.852700000        20.223700000        36.623600000 C.3     431 pp      -0.074342058
     3930 H4           22.624500000        19.590200000        38.298600000 H       431 pp       0.039424942
     3931 H5           24.177600000        20.302400000        38.718400000 H       431 pp       0.039424942
     3932 H6           24.675300000        20.921700000        36.517100000 H       431 pp       0.043757942
     3933 C8           22.826300000        20.513400000        35.515600000 C.3     431 pp      -0.086043058
     3934 H9           21.975000000        19.838900000        35.601700000 H       431 pp       0.039424942
     3935 H10          22.476800000        21.538600000        35.571800000 H       431 pp       0.039424942
     3936 H11          23.293800000        20.377600000        34.542000000 H       431 pp       0.039424942
     3937 C1           24.322200000        18.760100000        36.406100000 C.3     432 pp      -0.086043058
     3938 C2           25.790400000        18.499700000        35.988900000 C.3     432 pp      -0.074342058
     3939 H4           23.683900000        18.303800000        35.651600000 H       432 pp       0.039424942
     3940 H5           24.162500000        18.220000000        37.335200000 H       432 pp       0.039424942
     3941 H6           26.420800000        18.576600000        36.870300000 H       432 pp       0.043757942
     3942 C8           26.324800000        19.477200000        34.924900000 C.3     432 pp      -0.086043058
     3943 H9           25.600300000        19.596300000        34.120400000 H       432 pp       0.039424942
     3944 H10          26.543500000        20.445100000        35.368000000 H       432 pp       0.039424942
     3945 H11          27.254900000        19.095900000        34.505400000 H       432 pp       0.039424942
     3946 C1           25.960300000        17.089000000        35.374900000 C.3     433 pp      -0.086043058
     3947 C2           25.375800000        15.885300000        36.146900000 C.3     433 pp      -0.074342058
     3948 H4           27.024800000        16.899500000        35.235600000 H       433 pp       0.039424942
     3949 H5           25.492900000        17.115400000        34.393200000 H       433 pp       0.039424942
     3950 H6           24.306600000        16.014800000        36.278700000 H       433 pp       0.043757942
     3951 C8           26.025600000        15.724600000        37.529200000 C.3     433 pp      -0.086043058
     3952 H9           27.111700000        15.748300000        37.441200000 H       433 pp       0.039424942
     3953 H10          25.701700000        16.527400000        38.187800000 H       433 pp       0.039424942
     3954 H11          25.723500000        14.775700000        37.971100000 H       433 pp       0.039424942
     3955 C1           25.620300000        14.603200000        35.323300000 C.3     434 pp      -0.086043058
     3956 C2           24.491000000        13.565300000        35.477800000 C.3     434 pp      -0.074342058
     3957 H4           26.565900000        14.167300000        35.643200000 H       434 pp       0.039424942
     3958 H5           25.709100000        14.843200000        34.264800000 H       434 pp       0.039424942
     3959 H6           24.110800000        13.584900000        36.498400000 H       434 pp       0.043757942
     3960 C8           25.080900000        12.171900000        35.204800000 C.3     434 pp      -0.086043058
     3961 H9           25.528900000        12.145100000        34.211300000 H       434 pp       0.039424942
     3962 H10          25.845200000        11.944700000        35.948100000 H       434 pp       0.039424942
     3963 H11          24.308600000        11.408500000        35.270200000 H       434 pp       0.039424942
     3964 C1           23.351100000        13.885500000        34.486800000 C.3     435 pp      -0.086043058
     3965 C2           22.037300000        13.171500000        34.841900000 C.3     435 pp      -0.074342058
     3966 H4           23.651800000        13.595500000        33.480000000 H       435 pp       0.039424942
     3967 H5           23.161500000        14.957400000        34.493800000 H       435 pp       0.039424942
     3968 H6           22.144000000        12.098900000        34.696300000 H       435 pp       0.043757942
     3969 H7           21.774400000        13.369700000        35.880200000 H       435 pp       0.043757942
     3970 C8           20.900300000        13.661800000        33.939200000 C.3     435 pp      -0.086043058
     3971 H9           20.759100000        14.735400000        34.060000000 H       435 pp       0.039424942
     3972 H10          21.136700000        13.441100000        32.898400000 H       435 pp       0.039424942
     3973 H11          19.979200000        13.147800000        34.213900000 H       435 pp       0.039424942
     3974 C1           24.854600000         9.641700000         8.874150000 C.3     436 pp      -0.086043058
     3975 C2           23.345900000         9.404360000         9.026250000 C.3     436 pp      -0.074342058
     3976 H3           25.404200000         8.933320000         9.492550000 H       436 pp       0.039424942
     3977 H4           25.151500000         9.518570000         7.832650000 H       436 pp       0.039424942
     3978 H5           25.102800000        10.648600000         9.201020000 H       436 pp       0.039424942
     3979 H6           23.113600000         9.498540000        10.085500000 H       436 pp       0.043757942
     3980 C8           23.051900000         7.968570000         8.570780000 C.3     436 pp      -0.086043058
     3981 H9           23.247600000         7.872620000         7.505930000 H       436 pp       0.039424942
     3982 H10          23.693200000         7.274840000         9.112190000 H       436 pp       0.039424942
     3983 H11          22.016800000         7.707550000         8.773120000 H       436 pp       0.039424942
     3984 C1           22.599000000        10.480700000         8.201530000 C.3     437 pp      -0.086043058
     3985 C2           21.064200000        10.607300000         8.352730000 C.3     437 pp      -0.074342058
     3986 H4           22.840200000        10.346900000         7.147760000 H       437 pp       0.039424942
     3987 H5           22.999800000        11.447700000         8.501130000 H       437 pp       0.039424942
     3988 H6           20.852600000        11.660900000         8.183980000 H       437 pp       0.043757942
     3989 C8           20.542000000        10.316500000         9.767580000 C.3     437 pp      -0.086043058
     3990 H9           20.586900000         9.251490000         9.987930000 H       437 pp       0.039424942
     3991 H10          21.132900000        10.869800000        10.497200000 H       437 pp       0.039424942
     3992 H11          19.506400000        10.647000000         9.842590000 H       437 pp       0.039424942
     3993 C1           20.276000000         9.786160000         7.307420000 C.3     438 pp      -0.086043058
     3994 C2           20.029000000        10.574000000         6.004610000 C.3     438 pp      -0.074342058
     3995 H4           19.310200000         9.505850000         7.725800000 H       438 pp       0.039424942
     3996 H5           20.818200000         8.876020000         7.086080000 H       438 pp       0.039424942
     3997 H6           20.878800000        11.218500000         5.807590000 H       438 pp       0.043757942
     3998 C8           18.782600000        11.460200000         6.188710000 C.3     438 pp      -0.086043058
     3999 H9           17.888800000        10.838800000         6.243460000 H       438 pp       0.039424942
     4000 H10          18.853600000        12.052400000         7.098850000 H       438 pp       0.039424942
     4001 H11          18.688900000        12.143700000         5.346790000 H       438 pp       0.039424942
     4002 C1           19.745300000         9.653230000         4.792220000 C.3     439 pp      -0.086043058
     4003 C2           20.922800000         9.163210000         3.913240000 C.3     439 pp      -0.074342058
     4004 H4           19.091000000        10.197700000         4.114270000 H       439 pp       0.039424942
     4005 H5           19.184200000         8.788030000         5.142970000 H       439 pp       0.039424942
     4006 H6           20.440200000         8.710940000         3.048740000 H       439 pp       0.043757942
     4007 C8           21.742500000         8.052000000         4.583030000 C.3     439 pp      -0.086043058
     4008 H9           22.430100000         8.478660000         5.309120000 H       439 pp       0.039424942
     4009 H10          21.081800000         7.341170000         5.075850000 H       439 pp       0.039424942
     4010 H11          22.310000000         7.514590000         3.826450000 H       439 pp       0.039424942
     4011 C1           21.816000000        10.314500000         3.395800000 C.3     440 pp      -0.086043058
     4012 C2           22.700600000         9.928560000         2.185990000 C.3     440 pp      -0.074342058
     4013 H4           22.461400000        10.667600000         4.197520000 H       440 pp       0.039424942
     4014 H5           21.156200000        11.130000000         3.111170000 H       440 pp       0.039424942
     4015 H6           22.354600000         8.980140000         1.780490000 H       440 pp       0.043757942
     4016 C8           24.159300000         9.758070000         2.651730000 C.3     440 pp      -0.086043058
     4017 H9           24.594400000        10.724900000         2.904340000 H       440 pp       0.039424942
     4018 H10          24.206700000         9.114560000         3.527730000 H       440 pp       0.039424942
     4019 H11          24.749400000         9.295410000         1.862690000 H       440 pp       0.039424942
     4020 C1           22.606800000        11.003100000         1.076080000 C.3     441 pp      -0.086043058
     4021 C2           23.207700000        10.539300000        -0.272800000 C.3     441 pp      -0.074342058
     4022 H4           23.121500000        11.901900000         1.404770000 H       441 pp       0.039424942
     4023 H5           21.565000000        11.272000000         0.926947000 H       441 pp       0.039424942
     4024 H6           23.474100000         9.485560000        -0.219800000 H       441 pp       0.043757942
     4025 C8           24.501600000        11.326500000        -0.543100000 C.3     441 pp      -0.086043058
     4026 H9           25.020300000        10.899100000        -1.401500000 H       441 pp       0.039424942
     4027 H10          24.269000000        12.372100000        -0.746200000 H       441 pp       0.039424942
     4028 H11          25.167500000        11.270000000         0.316748000 H       441 pp       0.039424942
     4029 C1           22.255100000        10.756500000        -1.473700000 C.3     442 pp      -0.086043058
     4030 C2           21.445500000         9.506690000        -1.887700000 C.3     442 pp      -0.074342058
     4031 H4           22.873700000        11.022600000        -2.328400000 H       442 pp       0.039424942
     4032 H5           21.584400000        11.596200000        -1.295700000 H       442 pp       0.039424942
     4033 H6           22.100000000         8.639490000        -1.884300000 H       442 pp       0.043757942
     4034 C8           20.973200000         9.723340000        -3.335100000 C.3     442 pp      -0.086043058
     4035 H9           20.463600000        10.683100000        -3.422400000 H       442 pp       0.039424942
     4036 H10          21.832500000         9.710770000        -4.005600000 H       442 pp       0.039424942
     4037 H11          20.291600000         8.931810000        -3.640500000 H       442 pp       0.039424942
     4038 C1           20.222800000         9.256480000        -0.979100000 C.3     443 pp      -0.086043058
     4039 C2           19.729100000         7.797270000        -0.972300000 C.3     443 pp      -0.074342058
     4040 H4           19.416000000         9.904350000        -1.315500000 H       443 pp       0.039424942
     4041 H5           20.453200000         9.515300000         0.047132500 H       443 pp       0.039424942
     4042 H6           19.829600000         7.365400000        -1.964700000 H       443 pp       0.043757942
     4043 C8           18.239700000         7.818350000        -0.587900000 C.3     443 pp      -0.086043058
     4044 H9           18.105700000         8.363370000         0.346663000 H       443 pp       0.039424942
     4045 H10          17.665000000         8.309220000        -1.373600000 H       443 pp       0.039424942
     4046 H11          17.856700000         6.807030000        -0.466400000 H       443 pp       0.039424942
     4047 C1           20.536700000         6.966910000         0.046631100 C.3     444 pp      -0.086043058
     4048 C2           20.362300000         5.444670000        -0.143400000 C.3     444 pp      -0.074342058
     4049 H4           20.208500000         7.242630000         1.046850000 H       444 pp       0.039424942
     4050 H5           21.593100000         7.215250000        -0.028300000 H       444 pp       0.039424942
     4051 H6           19.562700000         5.233030000        -0.847100000 H       444 pp       0.043757942
     4052 C8           19.936600000         4.828080000         1.197030000 C.3     444 pp      -0.086043058
     4053 H9           20.713700000         4.986850000         1.945010000 H       444 pp       0.039424942
     4054 H10          19.005400000         5.281710000         1.537560000 H       444 pp       0.039424942
     4055 H11          19.767900000         3.759010000         1.072010000 H       444 pp       0.039424942
     4056 C1           21.660400000         4.750030000        -0.609700000 C.3     445 pp      -0.086043058
     4057 C2           22.167400000         5.123270000        -2.023900000 C.3     445 pp      -0.074342058
     4058 H4           21.486500000         3.676760000        -0.589900000 H       445 pp       0.039424942
     4059 H5           22.436300000         4.970140000         0.118567000 H       445 pp       0.039424942
     4060 H6           22.258500000         6.198880000        -2.123500000 H       445 pp       0.043757942
     4061 C8           21.192500000         4.643380000        -3.111900000 C.3     445 pp      -0.086043058
     4062 H9           21.039700000         3.570000000        -3.023100000 H       445 pp       0.039424942
     4063 H10          20.234300000         5.149170000        -3.027200000 H       445 pp       0.039424942
     4064 H11          21.594900000         4.871510000        -4.098300000 H       445 pp       0.039424942
     4065 C1           23.532400000         4.446100000        -2.290700000 C.3     446 pp      -0.086043058
     4066 C2           24.772300000         5.134590000        -1.674200000 C.3     446 pp      -0.074342058
     4067 H4           23.699500000         4.380430000        -3.365000000 H       446 pp       0.039424942
     4068 H5           23.467300000         3.429620000        -1.905500000 H       446 pp       0.039424942
     4069 H6           24.650700000         5.215110000        -0.599400000 H       446 pp       0.043757942
     4070 C8           24.984500000         6.548790000        -2.245100000 C.3     446 pp      -0.086043058
     4071 H9           24.788800000         6.558110000        -3.317300000 H       446 pp       0.039424942
     4072 H10          24.316300000         7.250660000        -1.748900000 H       446 pp       0.039424942
     4073 H11          26.006800000         6.879620000        -2.072600000 H       446 pp       0.039424942
     4074 C1           26.009400000         4.265100000        -1.987400000 C.3     447 pp      -0.086043058
     4075 C2           27.149500000         4.398440000        -0.957800000 C.3     447 pp      -0.074342058
     4076 H4           26.377400000         4.549920000        -2.972700000 H       447 pp       0.039424942
     4077 H5           25.728600000         3.214450000        -2.031100000 H       447 pp       0.039424942
     4078 H6           27.257900000         5.438970000        -0.661200000 H       447 pp       0.043757942
     4079 C8           28.451200000         3.957920000        -1.649400000 C.3     447 pp      -0.086043058
     4080 H9           28.321300000         2.971710000        -2.095800000 H       447 pp       0.039424942
     4081 H10          28.707100000         4.672550000        -2.431900000 H       447 pp       0.039424942
     4082 H11          29.274900000         3.919330000        -0.938900000 H       447 pp       0.039424942
     4083 C1           26.875100000         3.514390000         0.279760000 C.3     448 pp      -0.086043058
     4084 C2           27.635400000         3.986980000         1.534900000 C.3     448 pp      -0.074342058
     4085 H4           27.178700000         2.495620000         0.043000400 H       448 pp       0.039424942
     4086 H5           25.811400000         3.502740000         0.503494000 H       448 pp       0.039424942
     4087 H6           28.581500000         4.417640000         1.218850000 H       448 pp       0.043757942
     4088 C8           28.005300000         2.779090000         2.413480000 C.3     448 pp      -0.086043058
     4089 H9           27.134200000         2.163220000         2.631130000 H       448 pp       0.039424942
     4090 H10          28.733200000         2.164460000         1.885940000 H       448 pp       0.039424942
     4091 H11          28.455200000         3.121170000         3.343560000 H       448 pp       0.039424942
     4092 C1           26.888500000         5.115360000         2.283730000 C.3     449 pp      -0.086043058
     4093 C2           25.710600000         4.693490000         3.189400000 C.3     449 pp      -0.074342058
     4094 H4           26.524700000         5.832270000         1.550850000 H       449 pp       0.039424942
     4095 H5           27.622500000         5.640560000         2.891910000 H       449 pp       0.039424942
     4096 H6           25.455100000         3.650390000         3.026280000 H       449 pp       0.043757942
     4097 C8           24.473000000         5.530430000         2.836070000 C.3     449 pp      -0.086043058
     4098 H9           24.662200000         6.584730000         3.033780000 H       449 pp       0.039424942
     4099 H10          24.227900000         5.399420000         1.785180000 H       449 pp       0.039424942
     4100 H11          23.618900000         5.197320000         3.421580000 H       449 pp       0.039424942
     4101 C1           26.128700000         4.918300000         4.656730000 C.3     450 pp      -0.086043058
     4102 C2           25.207600000         4.263930000         5.693150000 C.3     450 pp      -0.074342058
     4103 H4           26.201900000         5.986750000         4.857720000 H       450 pp       0.039424942
     4104 H5           27.108500000         4.470820000         4.810140000 H       450 pp       0.039424942
     4105 H6           24.582200000         3.504570000         5.227910000 H       450 pp       0.043757942
     4106 H7           25.846600000         3.786880000         6.434470000 H       450 pp       0.043757942
     4107 C8           24.337700000         5.290240000         6.426560000 C.3     450 pp      -0.086043058
     4108 H9           24.975500000         6.009360000         6.939070000 H       450 pp       0.039424942
     4109 H10          23.691000000         5.815530000         5.727240000 H       450 pp       0.039424942
     4110 H11          23.721100000         4.774510000         7.162250000 H       450 pp       0.039424942
@<TRIPOS>BOND
        1         1         2 1     
        2         1         3 1     
        3         1         4 1     
        4         1         5 1     
        5         2         6 1     
        6         2         7 1     
        7         7         8 1     
        8         7         9 1     
        9         7        10 1     
       10        11        12 1     
       11        11        13 1     
       12        11        14 1     
       13        12        15 1     
       14        12        16 1     
       15        16        17 1     
       16        16        18 1     
       17        16        19 1     
       18         2        11 1     
       19        20        21 1     
       20        20        22 1     
       21        20        23 1     
       22        21        24 1     
       23        21        25 1     
       24        25        26 1     
       25        25        27 1     
       26        25        28 1     
       27        12        20 1     
       28        29        30 1     
       29        29        31 1     
       30        29        32 1     
       31        30        33 1     
       32        30        34 1     
       33        34        35 1     
       34        34        36 1     
       35        34        37 1     
       36        21        29 1     
       37        38        39 1     
       38        38        40 1     
       39        38        41 1     
       40        39        42 1     
       41        39        43 1     
       42        43        44 1     
       43        43        45 1     
       44        43        46 1     
       45        30        38 1     
       46        47        48 1     
       47        47        49 1     
       48        47        50 1     
       49        48        51 1     
       50        48        52 1     
       51        52        53 1     
       52        52        54 1     
       53        52        55 1     
       54        39        47 1     
       55        56        57 1     
       56        56        58 1     
       57        56        59 1     
       58        57        60 1     
       59        57        61 1     
       60        61        62 1     
       61        61        63 1     
       62        61        64 1     
       63        48        56 1     
       64        65        66 1     
       65        65        67 1     
       66        65        68 1     
       67        66        69 1     
       68        66        70 1     
       69        70        71 1     
       70        70        72 1     
       71        70        73 1     
       72        57        65 1     
       73        74        75 1     
       74        74        76 1     
       75        74        77 1     
       76        75        78 1     
       77        75        79 1     
       78        79        80 1     
       79        79        81 1     
       80        79        82 1     
       81        66        74 1     
       82        83        84 1     
       83        83        85 1     
       84        83        86 1     
       85        84        87 1     
       86        84        88 1     
       87        88        89 1     
       88        88        90 1     
       89        88        91 1     
       90        75        83 1     
       91        92        93 1     
       92        92        94 1     
       93        92        95 1     
       94        93        96 1     
       95        93        97 1     
       96        97        98 1     
       97        97        99 1     
       98        97       100 1     
       99        84        92 1     
      100       101       102 1     
      101       101       103 1     
      102       101       104 1     
      103       102       105 1     
      104       102       106 1     
      105       106       107 1     
      106       106       108 1     
      107       106       109 1     
      108        93       101 1     
      109       110       111 1     
      110       110       112 1     
      111       110       113 1     
      112       111       114 1     
      113       111       115 1     
      114       115       116 1     
      115       115       117 1     
      116       115       118 1     
      117       102       110 1     
      118       119       120 1     
      119       119       121 1     
      120       119       122 1     
      121       120       123 1     
      122       120       124 1     
      123       124       125 1     
      124       124       126 1     
      125       124       127 1     
      126       111       119 1     
      127       128       129 1     
      128       128       130 1     
      129       128       131 1     
      130       129       132 1     
      131       129       133 1     
      132       129       134 1     
      133       134       135 1     
      134       134       136 1     
      135       134       137 1     
      136       120       128 1     
      137       138       139 1     
      138       138       140 1     
      139       138       141 1     
      140       138       142 1     
      141       139       143 1     
      142       139       144 1     
      143       144       145 1     
      144       144       146 1     
      145       144       147 1     
      146       148       149 1     
      147       148       150 1     
      148       148       151 1     
      149       149       152 1     
      150       149       153 1     
      151       153       154 1     
      152       153       155 1     
      153       153       156 1     
      154       139       148 1     
      155       157       158 1     
      156       157       159 1     
      157       157       160 1     
      158       158       161 1     
      159       158       162 1     
      160       162       163 1     
      161       162       164 1     
      162       162       165 1     
      163       149       157 1     
      164       166       167 1     
      165       166       168 1     
      166       166       169 1     
      167       167       170 1     
      168       167       171 1     
      169       171       172 1     
      170       171       173 1     
      171       171       174 1     
      172       158       166 1     
      173       175       176 1     
      174       175       177 1     
      175       175       178 1     
      176       176       179 1     
      177       176       180 1     
      178       180       181 1     
      179       180       182 1     
      180       180       183 1     
      181       167       175 1     
      182       184       185 1     
      183       184       186 1     
      184       184       187 1     
      185       185       188 1     
      186       185       189 1     
      187       189       190 1     
      188       189       191 1     
      189       189       192 1     
      190       176       184 1     
      191       193       194 1     
      192       193       195 1     
      193       193       196 1     
      194       194       197 1     
      195       194       198 1     
      196       198       199 1     
      197       198       200 1     
      198       198       201 1     
      199       185       193 1     
      200       202       203 1     
      201       202       204 1     
      202       202       205 1     
      203       203       206 1     
      204       203       207 1     
      205       207       208 1     
      206       207       209 1     
      207       207       210 1     
      208       194       202 1     
      209       211       212 1     
      210       211       213 1     
      211       211       214 1     
      212       212       215 1     
      213       212       216 1     
      214       216       217 1     
      215       216       218 1     
      216       216       219 1     
      217       203       211 1     
      218       220       221 1     
      219       220       222 1     
      220       220       223 1     
      221       221       224 1     
      222       221       225 1     
      223       225       226 1     
      224       225       227 1     
      225       225       228 1     
      226       212       220 1     
      227       229       230 1     
      228       229       231 1     
      229       229       232 1     
      230       230       233 1     
      231       230       234 1     
      232       234       235 1     
      233       234       236 1     
      234       234       237 1     
      235       221       229 1     
      236       238       239 1     
      237       238       240 1     
      238       238       241 1     
      239       239       242 1     
      240       239       243 1     
      241       243       244 1     
      242       243       245 1     
      243       243       246 1     
      244       230       238 1     
      245       247       248 1     
      246       247       249 1     
      247       247       250 1     
      248       248       251 1     
      249       248       252 1     
      250       252       253 1     
      251       252       254 1     
      252       252       255 1     
      253       239       247 1     
      254       256       257 1     
      255       256       258 1     
      256       256       259 1     
      257       257       260 1     
      258       257       261 1     
      259       261       262 1     
      260       261       263 1     
      261       261       264 1     
      262       248       256 1     
      263       265       266 1     
      264       265       267 1     
      265       265       268 1     
      266       266       269 1     
      267       266       270 1     
      268       266       271 1     
      269       271       272 1     
      270       271       273 1     
      271       271       274 1     
      272       257       265 1     
      273       275       276 1     
      274       275       277 1     
      275       275       278 1     
      276       275       279 1     
      277       276       280 1     
      278       276       281 1     
      279       281       282 1     
      280       281       283 1     
      281       281       284 1     
      282       285       286 1     
      283       285       287 1     
      284       285       288 1     
      285       286       289 1     
      286       286       290 1     
      287       290       291 1     
      288       290       292 1     
      289       290       293 1     
      290       276       285 1     
      291       294       295 1     
      292       294       296 1     
      293       294       297 1     
      294       295       298 1     
      295       295       299 1     
      296       299       300 1     
      297       299       301 1     
      298       299       302 1     
      299       286       294 1     
      300       303       304 1     
      301       303       305 1     
      302       303       306 1     
      303       304       307 1     
      304       304       308 1     
      305       308       309 1     
      306       308       310 1     
      307       308       311 1     
      308       295       303 1     
      309       312       313 1     
      310       312       314 1     
      311       312       315 1     
      312       313       316 1     
      313       313       317 1     
      314       317       318 1     
      315       317       319 1     
      316       317       320 1     
      317       304       312 1     
      318       321       322 1     
      319       321       323 1     
      320       321       324 1     
      321       322       325 1     
      322       322       326 1     
      323       326       327 1     
      324       326       328 1     
      325       326       329 1     
      326       313       321 1     
      327       330       331 1     
      328       330       332 1     
      329       330       333 1     
      330       331       334 1     
      331       331       335 1     
      332       335       336 1     
      333       335       337 1     
      334       335       338 1     
      335       322       330 1     
      336       339       340 1     
      337       339       341 1     
      338       339       342 1     
      339       340       343 1     
      340       340       344 1     
      341       344       345 1     
      342       344       346 1     
      343       344       347 1     
      344       331       339 1     
      345       348       349 1     
      346       348       350 1     
      347       348       351 1     
      348       349       352 1     
      349       349       353 1     
      350       353       354 1     
      351       353       355 1     
      352       353       356 1     
      353       340       348 1     
      354       357       358 1     
      355       357       359 1     
      356       357       360 1     
      357       358       361 1     
      358       358       362 1     
      359       362       363 1     
      360       362       364 1     
      361       362       365 1     
      362       349       357 1     
      363       366       367 1     
      364       366       368 1     
      365       366       369 1     
      366       367       370 1     
      367       367       371 1     
      368       371       372 1     
      369       371       373 1     
      370       371       374 1     
      371       358       366 1     
      372       375       376 1     
      373       375       377 1     
      374       375       378 1     
      375       376       379 1     
      376       376       380 1     
      377       380       381 1     
      378       380       382 1     
      379       380       383 1     
      380       367       375 1     
      381       384       385 1     
      382       384       386 1     
      383       384       387 1     
      384       385       388 1     
      385       385       389 1     
      386       389       390 1     
      387       389       391 1     
      388       389       392 1     
      389       376       384 1     
      390       393       394 1     
      391       393       395 1     
      392       393       396 1     
      393       394       397 1     
      394       394       398 1     
      395       398       399 1     
      396       398       400 1     
      397       398       401 1     
      398       385       393 1     
      399       402       403 1     
      400       402       404 1     
      401       402       405 1     
      402       403       406 1     
      403       403       407 1     
      404       403       408 1     
      405       408       409 1     
      406       408       410 1     
      407       408       411 1     
      408       394       402 1     
      409       412       413 1     
      410       412       414 1     
      411       412       415 1     
      412       412       416 1     
      413       413       417 1     
      414       413       418 1     
      415       418       419 1     
      416       418       420 1     
      417       418       421 1     
      418       422       423 1     
      419       422       424 1     
      420       422       425 1     
      421       423       426 1     
      422       423       427 1     
      423       427       428 1     
      424       427       429 1     
      425       427       430 1     
      426       413       422 1     
      427       431       432 1     
      428       431       433 1     
      429       431       434 1     
      430       432       435 1     
      431       432       436 1     
      432       436       437 1     
      433       436       438 1     
      434       436       439 1     
      435       423       431 1     
      436       440       441 1     
      437       440       442 1     
      438       440       443 1     
      439       441       444 1     
      440       441       445 1     
      441       445       446 1     
      442       445       447 1     
      443       445       448 1     
      444       432       440 1     
      445       449       450 1     
      446       449       451 1     
      447       449       452 1     
      448       450       453 1     
      449       450       454 1     
      450       454       455 1     
      451       454       456 1     
      452       454       457 1     
      453       441       449 1     
      454       458       459 1     
      455       458       460 1     
      456       458       461 1     
      457       459       462 1     
      458       459       463 1     
      459       463       464 1     
      460       463       465 1     
      461       463       466 1     
      462       450       458 1     
      463       467       468 1     
      464       467       469 1     
      465       467       470 1     
      466       468       471 1     
      467       468       472 1     
      468       472       473 1     
      469       472       474 1     
      470       472       475 1     
      471       459       467 1     
      472       476       477 1     
      473       476       478 1     
      474       476       479 1     
      475       477       480 1     
      476       477       481 1     
      477       481       482 1     
      478       481       483 1     
      479       481       484 1     
      480       468       476 1     
      481       485       486 1     
      482       485       487 1     
      483       485       488 1     
      484       486       489 1     
      485       486       490 1     
      486       490       491 1     
      487       490       492 1     
      488       490       493 1     
      489       477       485 1     
      490       494       495 1     
      491       494       496 1     
      492       494       497 1     
      493       495       498 1     
      494       495       499 1     
      495       499       500 1     
      496       499       501 1     
      497       499       502 1     
      498       486       494 1     
      499       503       504 1     
      500       503       505 1     
      501       503       506 1     
      502       504       507 1     
      503       504       508 1     
      504       508       509 1     
      505       508       510 1     
      506       508       511 1     
      507       495       503 1     
      508       512       513 1     
      509       512       514 1     
      510       512       515 1     
      511       513       516 1     
      512       513       517 1     
      513       517       518 1     
      514       517       519 1     
      515       517       520 1     
      516       504       512 1     
      517       521       522 1     
      518       521       523 1     
      519       521       524 1     
      520       522       525 1     
      521       522       526 1     
      522       526       527 1     
      523       526       528 1     
      524       526       529 1     
      525       513       521 1     
      526       530       531 1     
      527       530       532 1     
      528       530       533 1     
      529       531       534 1     
      530       531       535 1     
      531       535       536 1     
      532       535       537 1     
      533       535       538 1     
      534       522       530 1     
      535       539       540 1     
      536       539       541 1     
      537       539       542 1     
      538       540       543 1     
      539       540       544 1     
      540       540       545 1     
      541       545       546 1     
      542       545       547 1     
      543       545       548 1     
      544       531       539 1     
      545       549       550 1     
      546       549       551 1     
      547       549       552 1     
      548       549       553 1     
      549       550       554 1     
      550       550       555 1     
      551       555       556 1     
      552       555       557 1     
      553       555       558 1     
      554       559       560 1     
      555       559       561 1     
      556       559       562 1     
      557       560       563 1     
      558       560       564 1     
      559       564       565 1     
      560       564       566 1     
      561       564       567 1     
      562       550       559 1     
      563       568       569 1     
      564       568       570 1     
      565       568       571 1     
      566       569       572 1     
      567       569       573 1     
      568       573       574 1     
      569       573       575 1     
      570       573       576 1     
      571       560       568 1     
      572       577       578 1     
      573       577       579 1     
      574       577       580 1     
      575       578       581 1     
      576       578       582 1     
      577       582       583 1     
      578       582       584 1     
      579       582       585 1     
      580       569       577 1     
      581       586       587 1     
      582       586       588 1     
      583       586       589 1     
      584       587       590 1     
      585       587       591 1     
      586       591       592 1     
      587       591       593 1     
      588       591       594 1     
      589       578       586 1     
      590       595       596 1     
      591       595       597 1     
      592       595       598 1     
      593       596       599 1     
      594       596       600 1     
      595       600       601 1     
      596       600       602 1     
      597       600       603 1     
      598       587       595 1     
      599       604       605 1     
      600       604       606 1     
      601       604       607 1     
      602       605       608 1     
      603       605       609 1     
      604       609       610 1     
      605       609       611 1     
      606       609       612 1     
      607       596       604 1     
      608       613       614 1     
      609       613       615 1     
      610       613       616 1     
      611       614       617 1     
      612       614       618 1     
      613       618       619 1     
      614       618       620 1     
      615       618       621 1     
      616       605       613 1     
      617       622       623 1     
      618       622       624 1     
      619       622       625 1     
      620       623       626 1     
      621       623       627 1     
      622       627       628 1     
      623       627       629 1     
      624       627       630 1     
      625       614       622 1     
      626       631       632 1     
      627       631       633 1     
      628       631       634 1     
      629       632       635 1     
      630       632       636 1     
      631       636       637 1     
      632       636       638 1     
      633       636       639 1     
      634       623       631 1     
      635       640       641 1     
      636       640       642 1     
      637       640       643 1     
      638       641       644 1     
      639       641       645 1     
      640       645       646 1     
      641       645       647 1     
      642       645       648 1     
      643       632       640 1     
      644       649       650 1     
      645       649       651 1     
      646       649       652 1     
      647       650       653 1     
      648       650       654 1     
      649       654       655 1     
      650       654       656 1     
      651       654       657 1     
      652       641       649 1     
      653       658       659 1     
      654       658       660 1     
      655       658       661 1     
      656       659       662 1     
      657       659       663 1     
      658       663       664 1     
      659       663       665 1     
      660       663       666 1     
      661       650       658 1     
      662       667       668 1     
      663       667       669 1     
      664       667       670 1     
      665       668       671 1     
      666       668       672 1     
      667       672       673 1     
      668       672       674 1     
      669       672       675 1     
      670       659       667 1     
      671       676       677 1     
      672       676       678 1     
      673       676       679 1     
      674       677       680 1     
      675       677       681 1     
      676       677       682 1     
      677       682       683 1     
      678       682       684 1     
      679       682       685 1     
      680       668       676 1     
      681       686       687 1     
      682       686       688 1     
      683       686       689 1     
      684       686       690 1     
      685       687       691 1     
      686       687       692 1     
      687       692       693 1     
      688       692       694 1     
      689       692       695 1     
      690       696       697 1     
      691       696       698 1     
      692       696       699 1     
      693       697       700 1     
      694       697       701 1     
      695       701       702 1     
      696       701       703 1     
      697       701       704 1     
      698       687       696 1     
      699       705       706 1     
      700       705       707 1     
      701       705       708 1     
      702       706       709 1     
      703       706       710 1     
      704       710       711 1     
      705       710       712 1     
      706       710       713 1     
      707       697       705 1     
      708       714       715 1     
      709       714       716 1     
      710       714       717 1     
      711       715       718 1     
      712       715       719 1     
      713       719       720 1     
      714       719       721 1     
      715       719       722 1     
      716       706       714 1     
      717       723       724 1     
      718       723       725 1     
      719       723       726 1     
      720       724       727 1     
      721       724       728 1     
      722       728       729 1     
      723       728       730 1     
      724       728       731 1     
      725       715       723 1     
      726       732       733 1     
      727       732       734 1     
      728       732       735 1     
      729       733       736 1     
      730       733       737 1     
      731       737       738 1     
      732       737       739 1     
      733       737       740 1     
      734       724       732 1     
      735       741       742 1     
      736       741       743 1     
      737       741       744 1     
      738       742       745 1     
      739       742       746 1     
      740       746       747 1     
      741       746       748 1     
      742       746       749 1     
      743       733       741 1     
      744       750       751 1     
      745       750       752 1     
      746       750       753 1     
      747       751       754 1     
      748       751       755 1     
      749       755       756 1     
      750       755       757 1     
      751       755       758 1     
      752       742       750 1     
      753       759       760 1     
      754       759       761 1     
      755       759       762 1     
      756       760       763 1     
      757       760       764 1     
      758       764       765 1     
      759       764       766 1     
      760       764       767 1     
      761       751       759 1     
      762       768       769 1     
      763       768       770 1     
      764       768       771 1     
      765       769       772 1     
      766       769       773 1     
      767       773       774 1     
      768       773       775 1     
      769       773       776 1     
      770       760       768 1     
      771       777       778 1     
      772       777       779 1     
      773       777       780 1     
      774       778       781 1     
      775       778       782 1     
      776       782       783 1     
      777       782       784 1     
      778       782       785 1     
      779       769       777 1     
      780       786       787 1     
      781       786       788 1     
      782       786       789 1     
      783       787       790 1     
      784       787       791 1     
      785       791       792 1     
      786       791       793 1     
      787       791       794 1     
      788       778       786 1     
      789       795       796 1     
      790       795       797 1     
      791       795       798 1     
      792       796       799 1     
      793       796       800 1     
      794       800       801 1     
      795       800       802 1     
      796       800       803 1     
      797       787       795 1     
      798       804       805 1     
      799       804       806 1     
      800       804       807 1     
      801       805       808 1     
      802       805       809 1     
      803       809       810 1     
      804       809       811 1     
      805       809       812 1     
      806       796       804 1     
      807       813       814 1     
      808       813       815 1     
      809       813       816 1     
      810       814       817 1     
      811       814       818 1     
      812       814       819 1     
      813       819       820 1     
      814       819       821 1     
      815       819       822 1     
      816       805       813 1     
      817       823       824 1     
      818       823       825 1     
      819       823       826 1     
      820       823       827 1     
      821       824       828 1     
      822       824       829 1     
      823       829       830 1     
      824       829       831 1     
      825       829       832 1     
      826       833       834 1     
      827       833       835 1     
      828       833       836 1     
      829       834       837 1     
      830       834       838 1     
      831       838       839 1     
      832       838       840 1     
      833       838       841 1     
      834       824       833 1     
      835       842       843 1     
      836       842       844 1     
      837       842       845 1     
      838       843       846 1     
      839       843       847 1     
      840       847       848 1     
      841       847       849 1     
      842       847       850 1     
      843       834       842 1     
      844       851       852 1     
      845       851       853 1     
      846       851       854 1     
      847       852       855 1     
      848       852       856 1     
      849       856       857 1     
      850       856       858 1     
      851       856       859 1     
      852       843       851 1     
      853       860       861 1     
      854       860       862 1     
      855       860       863 1     
      856       861       864 1     
      857       861       865 1     
      858       865       866 1     
      859       865       867 1     
      860       865       868 1     
      861       852       860 1     
      862       869       870 1     
      863       869       871 1     
      864       869       872 1     
      865       870       873 1     
      866       870       874 1     
      867       874       875 1     
      868       874       876 1     
      869       874       877 1     
      870       861       869 1     
      871       878       879 1     
      872       878       880 1     
      873       878       881 1     
      874       879       882 1     
      875       879       883 1     
      876       883       884 1     
      877       883       885 1     
      878       883       886 1     
      879       870       878 1     
      880       887       888 1     
      881       887       889 1     
      882       887       890 1     
      883       888       891 1     
      884       888       892 1     
      885       892       893 1     
      886       892       894 1     
      887       892       895 1     
      888       879       887 1     
      889       896       897 1     
      890       896       898 1     
      891       896       899 1     
      892       897       900 1     
      893       897       901 1     
      894       901       902 1     
      895       901       903 1     
      896       901       904 1     
      897       888       896 1     
      898       905       906 1     
      899       905       907 1     
      900       905       908 1     
      901       906       909 1     
      902       906       910 1     
      903       910       911 1     
      904       910       912 1     
      905       910       913 1     
      906       897       905 1     
      907       914       915 1     
      908       914       916 1     
      909       914       917 1     
      910       915       918 1     
      911       915       919 1     
      912       919       920 1     
      913       919       921 1     
      914       919       922 1     
      915       906       914 1     
      916       923       924 1     
      917       923       925 1     
      918       923       926 1     
      919       924       927 1     
      920       924       928 1     
      921       928       929 1     
      922       928       930 1     
      923       928       931 1     
      924       915       923 1     
      925       932       933 1     
      926       932       934 1     
      927       932       935 1     
      928       933       936 1     
      929       933       937 1     
      930       937       938 1     
      931       937       939 1     
      932       937       940 1     
      933       924       932 1     
      934       941       942 1     
      935       941       943 1     
      936       941       944 1     
      937       942       945 1     
      938       942       946 1     
      939       946       947 1     
      940       946       948 1     
      941       946       949 1     
      942       933       941 1     
      943       950       951 1     
      944       950       952 1     
      945       950       953 1     
      946       951       954 1     
      947       951       955 1     
      948       951       956 1     
      949       956       957 1     
      950       956       958 1     
      951       956       959 1     
      952       942       950 1     
      953       960       961 1     
      954       960       962 1     
      955       960       963 1     
      956       960       964 1     
      957       961       965 1     
      958       961       966 1     
      959       966       967 1     
      960       966       968 1     
      961       966       969 1     
      962       970       971 1     
      963       970       972 1     
      964       970       973 1     
      965       971       974 1     
      966       971       975 1     
      967       975       976 1     
      968       975       977 1     
      969       975       978 1     
      970       961       970 1     
      971       979       980 1     
      972       979       981 1     
      973       979       982 1     
      974       980       983 1     
      975       980       984 1     
      976       984       985 1     
      977       984       986 1     
      978       984       987 1     
      979       971       979 1     
      980       988       989 1     
      981       988       990 1     
      982       988       991 1     
      983       989       992 1     
      984       989       993 1     
      985       993       994 1     
      986       993       995 1     
      987       993       996 1     
      988       980       988 1     
      989       997       998 1     
      990       997       999 1     
      991       997      1000 1     
      992       998      1001 1     
      993       998      1002 1     
      994      1002      1003 1     
      995      1002      1004 1     
      996      1002      1005 1     
      997       989       997 1     
      998      1006      1007 1     
      999      1006      1008 1     
     1000      1006      1009 1     
     1001      1007      1010 1     
     1002      1007      1011 1     
     1003      1011      1012 1     
     1004      1011      1013 1     
     1005      1011      1014 1     
     1006       998      1006 1     
     1007      1015      1016 1     
     1008      1015      1017 1     
     1009      1015      1018 1     
     1010      1016      1019 1     
     1011      1016      1020 1     
     1012      1020      1021 1     
     1013      1020      1022 1     
     1014      1020      1023 1     
     1015      1007      1015 1     
     1016      1024      1025 1     
     1017      1024      1026 1     
     1018      1024      1027 1     
     1019      1025      1028 1     
     1020      1025      1029 1     
     1021      1029      1030 1     
     1022      1029      1031 1     
     1023      1029      1032 1     
     1024      1016      1024 1     
     1025      1033      1034 1     
     1026      1033      1035 1     
     1027      1033      1036 1     
     1028      1034      1037 1     
     1029      1034      1038 1     
     1030      1038      1039 1     
     1031      1038      1040 1     
     1032      1038      1041 1     
     1033      1025      1033 1     
     1034      1042      1043 1     
     1035      1042      1044 1     
     1036      1042      1045 1     
     1037      1043      1046 1     
     1038      1043      1047 1     
     1039      1047      1048 1     
     1040      1047      1049 1     
     1041      1047      1050 1     
     1042      1034      1042 1     
     1043      1051      1052 1     
     1044      1051      1053 1     
     1045      1051      1054 1     
     1046      1052      1055 1     
     1047      1052      1056 1     
     1048      1056      1057 1     
     1049      1056      1058 1     
     1050      1056      1059 1     
     1051      1043      1051 1     
     1052      1060      1061 1     
     1053      1060      1062 1     
     1054      1060      1063 1     
     1055      1061      1064 1     
     1056      1061      1065 1     
     1057      1065      1066 1     
     1058      1065      1067 1     
     1059      1065      1068 1     
     1060      1052      1060 1     
     1061      1069      1070 1     
     1062      1069      1071 1     
     1063      1069      1072 1     
     1064      1070      1073 1     
     1065      1070      1074 1     
     1066      1074      1075 1     
     1067      1074      1076 1     
     1068      1074      1077 1     
     1069      1061      1069 1     
     1070      1078      1079 1     
     1071      1078      1080 1     
     1072      1078      1081 1     
     1073      1079      1082 1     
     1074      1079      1083 1     
     1075      1083      1084 1     
     1076      1083      1085 1     
     1077      1083      1086 1     
     1078      1070      1078 1     
     1079      1087      1088 1     
     1080      1087      1089 1     
     1081      1087      1090 1     
     1082      1088      1091 1     
     1083      1088      1092 1     
     1084      1088      1093 1     
     1085      1093      1094 1     
     1086      1093      1095 1     
     1087      1093      1096 1     
     1088      1079      1087 1     
     1089      1097      1098 1     
     1090      1097      1099 1     
     1091      1097      1100 1     
     1092      1097      1101 1     
     1093      1098      1102 1     
     1094      1098      1103 1     
     1095      1103      1104 1     
     1096      1103      1105 1     
     1097      1103      1106 1     
     1098      1107      1108 1     
     1099      1107      1109 1     
     1100      1107      1110 1     
     1101      1108      1111 1     
     1102      1108      1112 1     
     1103      1112      1113 1     
     1104      1112      1114 1     
     1105      1112      1115 1     
     1106      1098      1107 1     
     1107      1116      1117 1     
     1108      1116      1118 1     
     1109      1116      1119 1     
     1110      1117      1120 1     
     1111      1117      1121 1     
     1112      1121      1122 1     
     1113      1121      1123 1     
     1114      1121      1124 1     
     1115      1108      1116 1     
     1116      1125      1126 1     
     1117      1125      1127 1     
     1118      1125      1128 1     
     1119      1126      1129 1     
     1120      1126      1130 1     
     1121      1130      1131 1     
     1122      1130      1132 1     
     1123      1130      1133 1     
     1124      1117      1125 1     
     1125      1134      1135 1     
     1126      1134      1136 1     
     1127      1134      1137 1     
     1128      1135      1138 1     
     1129      1135      1139 1     
     1130      1139      1140 1     
     1131      1139      1141 1     
     1132      1139      1142 1     
     1133      1126      1134 1     
     1134      1143      1144 1     
     1135      1143      1145 1     
     1136      1143      1146 1     
     1137      1144      1147 1     
     1138      1144      1148 1     
     1139      1148      1149 1     
     1140      1148      1150 1     
     1141      1148      1151 1     
     1142      1135      1143 1     
     1143      1152      1153 1     
     1144      1152      1154 1     
     1145      1152      1155 1     
     1146      1153      1156 1     
     1147      1153      1157 1     
     1148      1157      1158 1     
     1149      1157      1159 1     
     1150      1157      1160 1     
     1151      1144      1152 1     
     1152      1161      1162 1     
     1153      1161      1163 1     
     1154      1161      1164 1     
     1155      1162      1165 1     
     1156      1162      1166 1     
     1157      1166      1167 1     
     1158      1166      1168 1     
     1159      1166      1169 1     
     1160      1153      1161 1     
     1161      1170      1171 1     
     1162      1170      1172 1     
     1163      1170      1173 1     
     1164      1171      1174 1     
     1165      1171      1175 1     
     1166      1175      1176 1     
     1167      1175      1177 1     
     1168      1175      1178 1     
     1169      1162      1170 1     
     1170      1179      1180 1     
     1171      1179      1181 1     
     1172      1179      1182 1     
     1173      1180      1183 1     
     1174      1180      1184 1     
     1175      1184      1185 1     
     1176      1184      1186 1     
     1177      1184      1187 1     
     1178      1171      1179 1     
     1179      1188      1189 1     
     1180      1188      1190 1     
     1181      1188      1191 1     
     1182      1189      1192 1     
     1183      1189      1193 1     
     1184      1193      1194 1     
     1185      1193      1195 1     
     1186      1193      1196 1     
     1187      1180      1188 1     
     1188      1197      1198 1     
     1189      1197      1199 1     
     1190      1197      1200 1     
     1191      1198      1201 1     
     1192      1198      1202 1     
     1193      1202      1203 1     
     1194      1202      1204 1     
     1195      1202      1205 1     
     1196      1189      1197 1     
     1197      1206      1207 1     
     1198      1206      1208 1     
     1199      1206      1209 1     
     1200      1207      1210 1     
     1201      1207      1211 1     
     1202      1211      1212 1     
     1203      1211      1213 1     
     1204      1211      1214 1     
     1205      1198      1206 1     
     1206      1215      1216 1     
     1207      1215      1217 1     
     1208      1215      1218 1     
     1209      1216      1219 1     
     1210      1216      1220 1     
     1211      1220      1221 1     
     1212      1220      1222 1     
     1213      1220      1223 1     
     1214      1207      1215 1     
     1215      1224      1225 1     
     1216      1224      1226 1     
     1217      1224      1227 1     
     1218      1225      1228 1     
     1219      1225      1229 1     
     1220      1225      1230 1     
     1221      1230      1231 1     
     1222      1230      1232 1     
     1223      1230      1233 1     
     1224      1216      1224 1     
     1225      1234      1235 1     
     1226      1234      1236 1     
     1227      1234      1237 1     
     1228      1234      1238 1     
     1229      1235      1239 1     
     1230      1235      1240 1     
     1231      1240      1241 1     
     1232      1240      1242 1     
     1233      1240      1243 1     
     1234      1244      1245 1     
     1235      1244      1246 1     
     1236      1244      1247 1     
     1237      1245      1248 1     
     1238      1245      1249 1     
     1239      1249      1250 1     
     1240      1249      1251 1     
     1241      1249      1252 1     
     1242      1235      1244 1     
     1243      1253      1254 1     
     1244      1253      1255 1     
     1245      1253      1256 1     
     1246      1254      1257 1     
     1247      1254      1258 1     
     1248      1258      1259 1     
     1249      1258      1260 1     
     1250      1258      1261 1     
     1251      1245      1253 1     
     1252      1262      1263 1     
     1253      1262      1264 1     
     1254      1262      1265 1     
     1255      1263      1266 1     
     1256      1263      1267 1     
     1257      1267      1268 1     
     1258      1267      1269 1     
     1259      1267      1270 1     
     1260      1254      1262 1     
     1261      1271      1272 1     
     1262      1271      1273 1     
     1263      1271      1274 1     
     1264      1272      1275 1     
     1265      1272      1276 1     
     1266      1276      1277 1     
     1267      1276      1278 1     
     1268      1276      1279 1     
     1269      1263      1271 1     
     1270      1280      1281 1     
     1271      1280      1282 1     
     1272      1280      1283 1     
     1273      1281      1284 1     
     1274      1281      1285 1     
     1275      1285      1286 1     
     1276      1285      1287 1     
     1277      1285      1288 1     
     1278      1272      1280 1     
     1279      1289      1290 1     
     1280      1289      1291 1     
     1281      1289      1292 1     
     1282      1290      1293 1     
     1283      1290      1294 1     
     1284      1294      1295 1     
     1285      1294      1296 1     
     1286      1294      1297 1     
     1287      1281      1289 1     
     1288      1298      1299 1     
     1289      1298      1300 1     
     1290      1298      1301 1     
     1291      1299      1302 1     
     1292      1299      1303 1     
     1293      1303      1304 1     
     1294      1303      1305 1     
     1295      1303      1306 1     
     1296      1290      1298 1     
     1297      1307      1308 1     
     1298      1307      1309 1     
     1299      1307      1310 1     
     1300      1308      1311 1     
     1301      1308      1312 1     
     1302      1312      1313 1     
     1303      1312      1314 1     
     1304      1312      1315 1     
     1305      1299      1307 1     
     1306      1316      1317 1     
     1307      1316      1318 1     
     1308      1316      1319 1     
     1309      1317      1320 1     
     1310      1317      1321 1     
     1311      1321      1322 1     
     1312      1321      1323 1     
     1313      1321      1324 1     
     1314      1308      1316 1     
     1315      1325      1326 1     
     1316      1325      1327 1     
     1317      1325      1328 1     
     1318      1326      1329 1     
     1319      1326      1330 1     
     1320      1330      1331 1     
     1321      1330      1332 1     
     1322      1330      1333 1     
     1323      1317      1325 1     
     1324      1334      1335 1     
     1325      1334      1336 1     
     1326      1334      1337 1     
     1327      1335      1338 1     
     1328      1335      1339 1     
     1329      1339      1340 1     
     1330      1339      1341 1     
     1331      1339      1342 1     
     1332      1326      1334 1     
     1333      1343      1344 1     
     1334      1343      1345 1     
     1335      1343      1346 1     
     1336      1344      1347 1     
     1337      1344      1348 1     
     1338      1348      1349 1     
     1339      1348      1350 1     
     1340      1348      1351 1     
     1341      1335      1343 1     
     1342      1352      1353 1     
     1343      1352      1354 1     
     1344      1352      1355 1     
     1345      1353      1356 1     
     1346      1353      1357 1     
     1347      1357      1358 1     
     1348      1357      1359 1     
     1349      1357      1360 1     
     1350      1344      1352 1     
     1351      1361      1362 1     
     1352      1361      1363 1     
     1353      1361      1364 1     
     1354      1362      1365 1     
     1355      1362      1366 1     
     1356      1362      1367 1     
     1357      1367      1368 1     
     1358      1367      1369 1     
     1359      1367      1370 1     
     1360      1353      1361 1     
     1361      1371      1372 1     
     1362      1371      1373 1     
     1363      1371      1374 1     
     1364      1371      1375 1     
     1365      1372      1376 1     
     1366      1372      1377 1     
     1367      1377      1378 1     
     1368      1377      1379 1     
     1369      1377      1380 1     
     1370      1381      1382 1     
     1371      1381      1383 1     
     1372      1381      1384 1     
     1373      1382      1385 1     
     1374      1382      1386 1     
     1375      1386      1387 1     
     1376      1386      1388 1     
     1377      1386      1389 1     
     1378      1372      1381 1     
     1379      1390      1391 1     
     1380      1390      1392 1     
     1381      1390      1393 1     
     1382      1391      1394 1     
     1383      1391      1395 1     
     1384      1395      1396 1     
     1385      1395      1397 1     
     1386      1395      1398 1     
     1387      1382      1390 1     
     1388      1399      1400 1     
     1389      1399      1401 1     
     1390      1399      1402 1     
     1391      1400      1403 1     
     1392      1400      1404 1     
     1393      1404      1405 1     
     1394      1404      1406 1     
     1395      1404      1407 1     
     1396      1391      1399 1     
     1397      1408      1409 1     
     1398      1408      1410 1     
     1399      1408      1411 1     
     1400      1409      1412 1     
     1401      1409      1413 1     
     1402      1413      1414 1     
     1403      1413      1415 1     
     1404      1413      1416 1     
     1405      1400      1408 1     
     1406      1417      1418 1     
     1407      1417      1419 1     
     1408      1417      1420 1     
     1409      1418      1421 1     
     1410      1418      1422 1     
     1411      1422      1423 1     
     1412      1422      1424 1     
     1413      1422      1425 1     
     1414      1409      1417 1     
     1415      1426      1427 1     
     1416      1426      1428 1     
     1417      1426      1429 1     
     1418      1427      1430 1     
     1419      1427      1431 1     
     1420      1431      1432 1     
     1421      1431      1433 1     
     1422      1431      1434 1     
     1423      1418      1426 1     
     1424      1435      1436 1     
     1425      1435      1437 1     
     1426      1435      1438 1     
     1427      1436      1439 1     
     1428      1436      1440 1     
     1429      1440      1441 1     
     1430      1440      1442 1     
     1431      1440      1443 1     
     1432      1427      1435 1     
     1433      1444      1445 1     
     1434      1444      1446 1     
     1435      1444      1447 1     
     1436      1445      1448 1     
     1437      1445      1449 1     
     1438      1449      1450 1     
     1439      1449      1451 1     
     1440      1449      1452 1     
     1441      1436      1444 1     
     1442      1453      1454 1     
     1443      1453      1455 1     
     1444      1453      1456 1     
     1445      1454      1457 1     
     1446      1454      1458 1     
     1447      1458      1459 1     
     1448      1458      1460 1     
     1449      1458      1461 1     
     1450      1445      1453 1     
     1451      1462      1463 1     
     1452      1462      1464 1     
     1453      1462      1465 1     
     1454      1463      1466 1     
     1455      1463      1467 1     
     1456      1467      1468 1     
     1457      1467      1469 1     
     1458      1467      1470 1     
     1459      1454      1462 1     
     1460      1471      1472 1     
     1461      1471      1473 1     
     1462      1471      1474 1     
     1463      1472      1475 1     
     1464      1472      1476 1     
     1465      1476      1477 1     
     1466      1476      1478 1     
     1467      1476      1479 1     
     1468      1463      1471 1     
     1469      1480      1481 1     
     1470      1480      1482 1     
     1471      1480      1483 1     
     1472      1481      1484 1     
     1473      1481      1485 1     
     1474      1485      1486 1     
     1475      1485      1487 1     
     1476      1485      1488 1     
     1477      1472      1480 1     
     1478      1489      1490 1     
     1479      1489      1491 1     
     1480      1489      1492 1     
     1481      1490      1493 1     
     1482      1490      1494 1     
     1483      1494      1495 1     
     1484      1494      1496 1     
     1485      1494      1497 1     
     1486      1481      1489 1     
     1487      1498      1499 1     
     1488      1498      1500 1     
     1489      1498      1501 1     
     1490      1499      1502 1     
     1491      1499      1503 1     
     1492      1499      1504 1     
     1493      1504      1505 1     
     1494      1504      1506 1     
     1495      1504      1507 1     
     1496      1490      1498 1     
     1497      1508      1509 1     
     1498      1508      1510 1     
     1499      1508      1511 1     
     1500      1508      1512 1     
     1501      1509      1513 1     
     1502      1509      1514 1     
     1503      1514      1515 1     
     1504      1514      1516 1     
     1505      1514      1517 1     
     1506      1518      1519 1     
     1507      1518      1520 1     
     1508      1518      1521 1     
     1509      1519      1522 1     
     1510      1519      1523 1     
     1511      1523      1524 1     
     1512      1523      1525 1     
     1513      1523      1526 1     
     1514      1509      1518 1     
     1515      1527      1528 1     
     1516      1527      1529 1     
     1517      1527      1530 1     
     1518      1528      1531 1     
     1519      1528      1532 1     
     1520      1532      1533 1     
     1521      1532      1534 1     
     1522      1532      1535 1     
     1523      1519      1527 1     
     1524      1536      1537 1     
     1525      1536      1538 1     
     1526      1536      1539 1     
     1527      1537      1540 1     
     1528      1537      1541 1     
     1529      1541      1542 1     
     1530      1541      1543 1     
     1531      1541      1544 1     
     1532      1528      1536 1     
     1533      1545      1546 1     
     1534      1545      1547 1     
     1535      1545      1548 1     
     1536      1546      1549 1     
     1537      1546      1550 1     
     1538      1550      1551 1     
     1539      1550      1552 1     
     1540      1550      1553 1     
     1541      1537      1545 1     
     1542      1554      1555 1     
     1543      1554      1556 1     
     1544      1554      1557 1     
     1545      1555      1558 1     
     1546      1555      1559 1     
     1547      1559      1560 1     
     1548      1559      1561 1     
     1549      1559      1562 1     
     1550      1546      1554 1     
     1551      1563      1564 1     
     1552      1563      1565 1     
     1553      1563      1566 1     
     1554      1564      1567 1     
     1555      1564      1568 1     
     1556      1568      1569 1     
     1557      1568      1570 1     
     1558      1568      1571 1     
     1559      1555      1563 1     
     1560      1572      1573 1     
     1561      1572      1574 1     
     1562      1572      1575 1     
     1563      1573      1576 1     
     1564      1573      1577 1     
     1565      1577      1578 1     
     1566      1577      1579 1     
     1567      1577      1580 1     
     1568      1564      1572 1     
     1569      1581      1582 1     
     1570      1581      1583 1     
     1571      1581      1584 1     
     1572      1582      1585 1     
     1573      1582      1586 1     
     1574      1586      1587 1     
     1575      1586      1588 1     
     1576      1586      1589 1     
     1577      1573      1581 1     
     1578      1590      1591 1     
     1579      1590      1592 1     
     1580      1590      1593 1     
     1581      1591      1594 1     
     1582      1591      1595 1     
     1583      1595      1596 1     
     1584      1595      1597 1     
     1585      1595      1598 1     
     1586      1582      1590 1     
     1587      1599      1600 1     
     1588      1599      1601 1     
     1589      1599      1602 1     
     1590      1600      1603 1     
     1591      1600      1604 1     
     1592      1604      1605 1     
     1593      1604      1606 1     
     1594      1604      1607 1     
     1595      1591      1599 1     
     1596      1608      1609 1     
     1597      1608      1610 1     
     1598      1608      1611 1     
     1599      1609      1612 1     
     1600      1609      1613 1     
     1601      1613      1614 1     
     1602      1613      1615 1     
     1603      1613      1616 1     
     1604      1600      1608 1     
     1605      1617      1618 1     
     1606      1617      1619 1     
     1607      1617      1620 1     
     1608      1618      1621 1     
     1609      1618      1622 1     
     1610      1622      1623 1     
     1611      1622      1624 1     
     1612      1622      1625 1     
     1613      1609      1617 1     
     1614      1626      1627 1     
     1615      1626      1628 1     
     1616      1626      1629 1     
     1617      1627      1630 1     
     1618      1627      1631 1     
     1619      1631      1632 1     
     1620      1631      1633 1     
     1621      1631      1634 1     
     1622      1618      1626 1     
     1623      1635      1636 1     
     1624      1635      1637 1     
     1625      1635      1638 1     
     1626      1636      1639 1     
     1627      1636      1640 1     
     1628      1636      1641 1     
     1629      1641      1642 1     
     1630      1641      1643 1     
     1631      1641      1644 1     
     1632      1627      1635 1     
     1633      1645      1646 1     
     1634      1645      1647 1     
     1635      1645      1648 1     
     1636      1645      1649 1     
     1637      1646      1650 1     
     1638      1646      1651 1     
     1639      1651      1652 1     
     1640      1651      1653 1     
     1641      1651      1654 1     
     1642      1655      1656 1     
     1643      1655      1657 1     
     1644      1655      1658 1     
     1645      1656      1659 1     
     1646      1656      1660 1     
     1647      1660      1661 1     
     1648      1660      1662 1     
     1649      1660      1663 1     
     1650      1646      1655 1     
     1651      1664      1665 1     
     1652      1664      1666 1     
     1653      1664      1667 1     
     1654      1665      1668 1     
     1655      1665      1669 1     
     1656      1669      1670 1     
     1657      1669      1671 1     
     1658      1669      1672 1     
     1659      1656      1664 1     
     1660      1673      1674 1     
     1661      1673      1675 1     
     1662      1673      1676 1     
     1663      1674      1677 1     
     1664      1674      1678 1     
     1665      1678      1679 1     
     1666      1678      1680 1     
     1667      1678      1681 1     
     1668      1665      1673 1     
     1669      1682      1683 1     
     1670      1682      1684 1     
     1671      1682      1685 1     
     1672      1683      1686 1     
     1673      1683      1687 1     
     1674      1687      1688 1     
     1675      1687      1689 1     
     1676      1687      1690 1     
     1677      1674      1682 1     
     1678      1691      1692 1     
     1679      1691      1693 1     
     1680      1691      1694 1     
     1681      1692      1695 1     
     1682      1692      1696 1     
     1683      1696      1697 1     
     1684      1696      1698 1     
     1685      1696      1699 1     
     1686      1683      1691 1     
     1687      1700      1701 1     
     1688      1700      1702 1     
     1689      1700      1703 1     
     1690      1701      1704 1     
     1691      1701      1705 1     
     1692      1705      1706 1     
     1693      1705      1707 1     
     1694      1705      1708 1     
     1695      1692      1700 1     
     1696      1709      1710 1     
     1697      1709      1711 1     
     1698      1709      1712 1     
     1699      1710      1713 1     
     1700      1710      1714 1     
     1701      1714      1715 1     
     1702      1714      1716 1     
     1703      1714      1717 1     
     1704      1701      1709 1     
     1705      1718      1719 1     
     1706      1718      1720 1     
     1707      1718      1721 1     
     1708      1719      1722 1     
     1709      1719      1723 1     
     1710      1723      1724 1     
     1711      1723      1725 1     
     1712      1723      1726 1     
     1713      1710      1718 1     
     1714      1727      1728 1     
     1715      1727      1729 1     
     1716      1727      1730 1     
     1717      1728      1731 1     
     1718      1728      1732 1     
     1719      1732      1733 1     
     1720      1732      1734 1     
     1721      1732      1735 1     
     1722      1719      1727 1     
     1723      1736      1737 1     
     1724      1736      1738 1     
     1725      1736      1739 1     
     1726      1737      1740 1     
     1727      1737      1741 1     
     1728      1741      1742 1     
     1729      1741      1743 1     
     1730      1741      1744 1     
     1731      1728      1736 1     
     1732      1745      1746 1     
     1733      1745      1747 1     
     1734      1745      1748 1     
     1735      1746      1749 1     
     1736      1746      1750 1     
     1737      1750      1751 1     
     1738      1750      1752 1     
     1739      1750      1753 1     
     1740      1737      1745 1     
     1741      1754      1755 1     
     1742      1754      1756 1     
     1743      1754      1757 1     
     1744      1755      1758 1     
     1745      1755      1759 1     
     1746      1759      1760 1     
     1747      1759      1761 1     
     1748      1759      1762 1     
     1749      1746      1754 1     
     1750      1763      1764 1     
     1751      1763      1765 1     
     1752      1763      1766 1     
     1753      1764      1767 1     
     1754      1764      1768 1     
     1755      1768      1769 1     
     1756      1768      1770 1     
     1757      1768      1771 1     
     1758      1755      1763 1     
     1759      1772      1773 1     
     1760      1772      1774 1     
     1761      1772      1775 1     
     1762      1773      1776 1     
     1763      1773      1777 1     
     1764      1773      1778 1     
     1765      1778      1779 1     
     1766      1778      1780 1     
     1767      1778      1781 1     
     1768      1764      1772 1     
     1769      1782      1783 1     
     1770      1782      1784 1     
     1771      1782      1785 1     
     1772      1782      1786 1     
     1773      1783      1787 1     
     1774      1783      1788 1     
     1775      1788      1789 1     
     1776      1788      1790 1     
     1777      1788      1791 1     
     1778      1792      1793 1     
     1779      1792      1794 1     
     1780      1792      1795 1     
     1781      1793      1796 1     
     1782      1793      1797 1     
     1783      1797      1798 1     
     1784      1797      1799 1     
     1785      1797      1800 1     
     1786      1783      1792 1     
     1787      1801      1802 1     
     1788      1801      1803 1     
     1789      1801      1804 1     
     1790      1802      1805 1     
     1791      1802      1806 1     
     1792      1806      1807 1     
     1793      1806      1808 1     
     1794      1806      1809 1     
     1795      1793      1801 1     
     1796      1810      1811 1     
     1797      1810      1812 1     
     1798      1810      1813 1     
     1799      1811      1814 1     
     1800      1811      1815 1     
     1801      1815      1816 1     
     1802      1815      1817 1     
     1803      1815      1818 1     
     1804      1802      1810 1     
     1805      1819      1820 1     
     1806      1819      1821 1     
     1807      1819      1822 1     
     1808      1820      1823 1     
     1809      1820      1824 1     
     1810      1824      1825 1     
     1811      1824      1826 1     
     1812      1824      1827 1     
     1813      1811      1819 1     
     1814      1828      1829 1     
     1815      1828      1830 1     
     1816      1828      1831 1     
     1817      1829      1832 1     
     1818      1829      1833 1     
     1819      1833      1834 1     
     1820      1833      1835 1     
     1821      1833      1836 1     
     1822      1820      1828 1     
     1823      1837      1838 1     
     1824      1837      1839 1     
     1825      1837      1840 1     
     1826      1838      1841 1     
     1827      1838      1842 1     
     1828      1842      1843 1     
     1829      1842      1844 1     
     1830      1842      1845 1     
     1831      1829      1837 1     
     1832      1846      1847 1     
     1833      1846      1848 1     
     1834      1846      1849 1     
     1835      1847      1850 1     
     1836      1847      1851 1     
     1837      1851      1852 1     
     1838      1851      1853 1     
     1839      1851      1854 1     
     1840      1838      1846 1     
     1841      1855      1856 1     
     1842      1855      1857 1     
     1843      1855      1858 1     
     1844      1856      1859 1     
     1845      1856      1860 1     
     1846      1860      1861 1     
     1847      1860      1862 1     
     1848      1860      1863 1     
     1849      1847      1855 1     
     1850      1864      1865 1     
     1851      1864      1866 1     
     1852      1864      1867 1     
     1853      1865      1868 1     
     1854      1865      1869 1     
     1855      1869      1870 1     
     1856      1869      1871 1     
     1857      1869      1872 1     
     1858      1856      1864 1     
     1859      1873      1874 1     
     1860      1873      1875 1     
     1861      1873      1876 1     
     1862      1874      1877 1     
     1863      1874      1878 1     
     1864      1878      1879 1     
     1865      1878      1880 1     
     1866      1878      1881 1     
     1867      1865      1873 1     
     1868      1882      1883 1     
     1869      1882      1884 1     
     1870      1882      1885 1     
     1871      1883      1886 1     
     1872      1883      1887 1     
     1873      1887      1888 1     
     1874      1887      1889 1     
     1875      1887      1890 1     
     1876      1874      1882 1     
     1877      1891      1892 1     
     1878      1891      1893 1     
     1879      1891      1894 1     
     1880      1892      1895 1     
     1881      1892      1896 1     
     1882      1896      1897 1     
     1883      1896      1898 1     
     1884      1896      1899 1     
     1885      1883      1891 1     
     1886      1900      1901 1     
     1887      1900      1902 1     
     1888      1900      1903 1     
     1889      1901      1904 1     
     1890      1901      1905 1     
     1891      1905      1906 1     
     1892      1905      1907 1     
     1893      1905      1908 1     
     1894      1892      1900 1     
     1895      1909      1910 1     
     1896      1909      1911 1     
     1897      1909      1912 1     
     1898      1910      1913 1     
     1899      1910      1914 1     
     1900      1910      1915 1     
     1901      1915      1916 1     
     1902      1915      1917 1     
     1903      1915      1918 1     
     1904      1901      1909 1     
     1905      1919      1920 1     
     1906      1919      1921 1     
     1907      1919      1922 1     
     1908      1919      1923 1     
     1909      1920      1924 1     
     1910      1920      1925 1     
     1911      1925      1926 1     
     1912      1925      1927 1     
     1913      1925      1928 1     
     1914      1929      1930 1     
     1915      1929      1931 1     
     1916      1929      1932 1     
     1917      1930      1933 1     
     1918      1930      1934 1     
     1919      1934      1935 1     
     1920      1934      1936 1     
     1921      1934      1937 1     
     1922      1920      1929 1     
     1923      1938      1939 1     
     1924      1938      1940 1     
     1925      1938      1941 1     
     1926      1939      1942 1     
     1927      1939      1943 1     
     1928      1943      1944 1     
     1929      1943      1945 1     
     1930      1943      1946 1     
     1931      1930      1938 1     
     1932      1947      1948 1     
     1933      1947      1949 1     
     1934      1947      1950 1     
     1935      1948      1951 1     
     1936      1948      1952 1     
     1937      1952      1953 1     
     1938      1952      1954 1     
     1939      1952      1955 1     
     1940      1939      1947 1     
     1941      1956      1957 1     
     1942      1956      1958 1     
     1943      1956      1959 1     
     1944      1957      1960 1     
     1945      1957      1961 1     
     1946      1961      1962 1     
     1947      1961      1963 1     
     1948      1961      1964 1     
     1949      1948      1956 1     
     1950      1965      1966 1     
     1951      1965      1967 1     
     1952      1965      1968 1     
     1953      1966      1969 1     
     1954      1966      1970 1     
     1955      1970      1971 1     
     1956      1970      1972 1     
     1957      1970      1973 1     
     1958      1957      1965 1     
     1959      1974      1975 1     
     1960      1974      1976 1     
     1961      1974      1977 1     
     1962      1975      1978 1     
     1963      1975      1979 1     
     1964      1979      1980 1     
     1965      1979      1981 1     
     1966      1979      1982 1     
     1967      1966      1974 1     
     1968      1983      1984 1     
     1969      1983      1985 1     
     1970      1983      1986 1     
     1971      1984      1987 1     
     1972      1984      1988 1     
     1973      1988      1989 1     
     1974      1988      1990 1     
     1975      1988      1991 1     
     1976      1975      1983 1     
     1977      1992      1993 1     
     1978      1992      1994 1     
     1979      1992      1995 1     
     1980      1993      1996 1     
     1981      1993      1997 1     
     1982      1997      1998 1     
     1983      1997      1999 1     
     1984      1997      2000 1     
     1985      1984      1992 1     
     1986      2001      2002 1     
     1987      2001      2003 1     
     1988      2001      2004 1     
     1989      2002      2005 1     
     1990      2002      2006 1     
     1991      2006      2007 1     
     1992      2006      2008 1     
     1993      2006      2009 1     
     1994      1993      2001 1     
     1995      2010      2011 1     
     1996      2010      2012 1     
     1997      2010      2013 1     
     1998      2011      2014 1     
     1999      2011      2015 1     
     2000      2015      2016 1     
     2001      2015      2017 1     
     2002      2015      2018 1     
     2003      2002      2010 1     
     2004      2019      2020 1     
     2005      2019      2021 1     
     2006      2019      2022 1     
     2007      2020      2023 1     
     2008      2020      2024 1     
     2009      2024      2025 1     
     2010      2024      2026 1     
     2011      2024      2027 1     
     2012      2011      2019 1     
     2013      2028      2029 1     
     2014      2028      2030 1     
     2015      2028      2031 1     
     2016      2029      2032 1     
     2017      2029      2033 1     
     2018      2033      2034 1     
     2019      2033      2035 1     
     2020      2033      2036 1     
     2021      2020      2028 1     
     2022      2037      2038 1     
     2023      2037      2039 1     
     2024      2037      2040 1     
     2025      2038      2041 1     
     2026      2038      2042 1     
     2027      2042      2043 1     
     2028      2042      2044 1     
     2029      2042      2045 1     
     2030      2029      2037 1     
     2031      2046      2047 1     
     2032      2046      2048 1     
     2033      2046      2049 1     
     2034      2047      2050 1     
     2035      2047      2051 1     
     2036      2047      2052 1     
     2037      2052      2053 1     
     2038      2052      2054 1     
     2039      2052      2055 1     
     2040      2038      2046 1     
     2041      2056      2057 1     
     2042      2056      2058 1     
     2043      2056      2059 1     
     2044      2056      2060 1     
     2045      2057      2061 1     
     2046      2057      2062 1     
     2047      2062      2063 1     
     2048      2062      2064 1     
     2049      2062      2065 1     
     2050      2066      2067 1     
     2051      2066      2068 1     
     2052      2066      2069 1     
     2053      2067      2070 1     
     2054      2067      2071 1     
     2055      2071      2072 1     
     2056      2071      2073 1     
     2057      2071      2074 1     
     2058      2057      2066 1     
     2059      2075      2076 1     
     2060      2075      2077 1     
     2061      2075      2078 1     
     2062      2076      2079 1     
     2063      2076      2080 1     
     2064      2080      2081 1     
     2065      2080      2082 1     
     2066      2080      2083 1     
     2067      2067      2075 1     
     2068      2084      2085 1     
     2069      2084      2086 1     
     2070      2084      2087 1     
     2071      2085      2088 1     
     2072      2085      2089 1     
     2073      2089      2090 1     
     2074      2089      2091 1     
     2075      2089      2092 1     
     2076      2076      2084 1     
     2077      2093      2094 1     
     2078      2093      2095 1     
     2079      2093      2096 1     
     2080      2094      2097 1     
     2081      2094      2098 1     
     2082      2098      2099 1     
     2083      2098      2100 1     
     2084      2098      2101 1     
     2085      2085      2093 1     
     2086      2102      2103 1     
     2087      2102      2104 1     
     2088      2102      2105 1     
     2089      2103      2106 1     
     2090      2103      2107 1     
     2091      2107      2108 1     
     2092      2107      2109 1     
     2093      2107      2110 1     
     2094      2094      2102 1     
     2095      2111      2112 1     
     2096      2111      2113 1     
     2097      2111      2114 1     
     2098      2112      2115 1     
     2099      2112      2116 1     
     2100      2116      2117 1     
     2101      2116      2118 1     
     2102      2116      2119 1     
     2103      2103      2111 1     
     2104      2120      2121 1     
     2105      2120      2122 1     
     2106      2120      2123 1     
     2107      2121      2124 1     
     2108      2121      2125 1     
     2109      2125      2126 1     
     2110      2125      2127 1     
     2111      2125      2128 1     
     2112      2112      2120 1     
     2113      2129      2130 1     
     2114      2129      2131 1     
     2115      2129      2132 1     
     2116      2130      2133 1     
     2117      2130      2134 1     
     2118      2134      2135 1     
     2119      2134      2136 1     
     2120      2134      2137 1     
     2121      2121      2129 1     
     2122      2138      2139 1     
     2123      2138      2140 1     
     2124      2138      2141 1     
     2125      2139      2142 1     
     2126      2139      2143 1     
     2127      2143      2144 1     
     2128      2143      2145 1     
     2129      2143      2146 1     
     2130      2130      2138 1     
     2131      2147      2148 1     
     2132      2147      2149 1     
     2133      2147      2150 1     
     2134      2148      2151 1     
     2135      2148      2152 1     
     2136      2152      2153 1     
     2137      2152      2154 1     
     2138      2152      2155 1     
     2139      2139      2147 1     
     2140      2156      2157 1     
     2141      2156      2158 1     
     2142      2156      2159 1     
     2143      2157      2160 1     
     2144      2157      2161 1     
     2145      2161      2162 1     
     2146      2161      2163 1     
     2147      2161      2164 1     
     2148      2148      2156 1     
     2149      2165      2166 1     
     2150      2165      2167 1     
     2151      2165      2168 1     
     2152      2166      2169 1     
     2153      2166      2170 1     
     2154      2170      2171 1     
     2155      2170      2172 1     
     2156      2170      2173 1     
     2157      2157      2165 1     
     2158      2174      2175 1     
     2159      2174      2176 1     
     2160      2174      2177 1     
     2161      2175      2178 1     
     2162      2175      2179 1     
     2163      2179      2180 1     
     2164      2179      2181 1     
     2165      2179      2182 1     
     2166      2166      2174 1     
     2167      2183      2184 1     
     2168      2183      2185 1     
     2169      2183      2186 1     
     2170      2184      2187 1     
     2171      2184      2188 1     
     2172      2184      2189 1     
     2173      2189      2190 1     
     2174      2189      2191 1     
     2175      2189      2192 1     
     2176      2175      2183 1     
     2177      2193      2194 1     
     2178      2193      2195 1     
     2179      2193      2196 1     
     2180      2193      2197 1     
     2181      2194      2198 1     
     2182      2194      2199 1     
     2183      2199      2200 1     
     2184      2199      2201 1     
     2185      2199      2202 1     
     2186      2203      2204 1     
     2187      2203      2205 1     
     2188      2203      2206 1     
     2189      2204      2207 1     
     2190      2204      2208 1     
     2191      2208      2209 1     
     2192      2208      2210 1     
     2193      2208      2211 1     
     2194      2194      2203 1     
     2195      2212      2213 1     
     2196      2212      2214 1     
     2197      2212      2215 1     
     2198      2213      2216 1     
     2199      2213      2217 1     
     2200      2217      2218 1     
     2201      2217      2219 1     
     2202      2217      2220 1     
     2203      2204      2212 1     
     2204      2221      2222 1     
     2205      2221      2223 1     
     2206      2221      2224 1     
     2207      2222      2225 1     
     2208      2222      2226 1     
     2209      2226      2227 1     
     2210      2226      2228 1     
     2211      2226      2229 1     
     2212      2213      2221 1     
     2213      2230      2231 1     
     2214      2230      2232 1     
     2215      2230      2233 1     
     2216      2231      2234 1     
     2217      2231      2235 1     
     2218      2235      2236 1     
     2219      2235      2237 1     
     2220      2235      2238 1     
     2221      2222      2230 1     
     2222      2239      2240 1     
     2223      2239      2241 1     
     2224      2239      2242 1     
     2225      2240      2243 1     
     2226      2240      2244 1     
     2227      2244      2245 1     
     2228      2244      2246 1     
     2229      2244      2247 1     
     2230      2231      2239 1     
     2231      2248      2249 1     
     2232      2248      2250 1     
     2233      2248      2251 1     
     2234      2249      2252 1     
     2235      2249      2253 1     
     2236      2253      2254 1     
     2237      2253      2255 1     
     2238      2253      2256 1     
     2239      2240      2248 1     
     2240      2257      2258 1     
     2241      2257      2259 1     
     2242      2257      2260 1     
     2243      2258      2261 1     
     2244      2258      2262 1     
     2245      2262      2263 1     
     2246      2262      2264 1     
     2247      2262      2265 1     
     2248      2249      2257 1     
     2249      2266      2267 1     
     2250      2266      2268 1     
     2251      2266      2269 1     
     2252      2267      2270 1     
     2253      2267      2271 1     
     2254      2271      2272 1     
     2255      2271      2273 1     
     2256      2271      2274 1     
     2257      2258      2266 1     
     2258      2275      2276 1     
     2259      2275      2277 1     
     2260      2275      2278 1     
     2261      2276      2279 1     
     2262      2276      2280 1     
     2263      2280      2281 1     
     2264      2280      2282 1     
     2265      2280      2283 1     
     2266      2267      2275 1     
     2267      2284      2285 1     
     2268      2284      2286 1     
     2269      2284      2287 1     
     2270      2285      2288 1     
     2271      2285      2289 1     
     2272      2289      2290 1     
     2273      2289      2291 1     
     2274      2289      2292 1     
     2275      2276      2284 1     
     2276      2293      2294 1     
     2277      2293      2295 1     
     2278      2293      2296 1     
     2279      2294      2297 1     
     2280      2294      2298 1     
     2281      2298      2299 1     
     2282      2298      2300 1     
     2283      2298      2301 1     
     2284      2285      2293 1     
     2285      2302      2303 1     
     2286      2302      2304 1     
     2287      2302      2305 1     
     2288      2303      2306 1     
     2289      2303      2307 1     
     2290      2307      2308 1     
     2291      2307      2309 1     
     2292      2307      2310 1     
     2293      2294      2302 1     
     2294      2311      2312 1     
     2295      2311      2313 1     
     2296      2311      2314 1     
     2297      2312      2315 1     
     2298      2312      2316 1     
     2299      2316      2317 1     
     2300      2316      2318 1     
     2301      2316      2319 1     
     2302      2303      2311 1     
     2303      2320      2321 1     
     2304      2320      2322 1     
     2305      2320      2323 1     
     2306      2321      2324 1     
     2307      2321      2325 1     
     2308      2321      2326 1     
     2309      2326      2327 1     
     2310      2326      2328 1     
     2311      2326      2329 1     
     2312      2312      2320 1     
     2313      2330      2331 1     
     2314      2330      2332 1     
     2315      2330      2333 1     
     2316      2330      2334 1     
     2317      2331      2335 1     
     2318      2331      2336 1     
     2319      2336      2337 1     
     2320      2336      2338 1     
     2321      2336      2339 1     
     2322      2340      2341 1     
     2323      2340      2342 1     
     2324      2340      2343 1     
     2325      2341      2344 1     
     2326      2341      2345 1     
     2327      2345      2346 1     
     2328      2345      2347 1     
     2329      2345      2348 1     
     2330      2331      2340 1     
     2331      2349      2350 1     
     2332      2349      2351 1     
     2333      2349      2352 1     
     2334      2350      2353 1     
     2335      2350      2354 1     
     2336      2354      2355 1     
     2337      2354      2356 1     
     2338      2354      2357 1     
     2339      2341      2349 1     
     2340      2358      2359 1     
     2341      2358      2360 1     
     2342      2358      2361 1     
     2343      2359      2362 1     
     2344      2359      2363 1     
     2345      2363      2364 1     
     2346      2363      2365 1     
     2347      2363      2366 1     
     2348      2350      2358 1     
     2349      2367      2368 1     
     2350      2367      2369 1     
     2351      2367      2370 1     
     2352      2368      2371 1     
     2353      2368      2372 1     
     2354      2372      2373 1     
     2355      2372      2374 1     
     2356      2372      2375 1     
     2357      2359      2367 1     
     2358      2376      2377 1     
     2359      2376      2378 1     
     2360      2376      2379 1     
     2361      2377      2380 1     
     2362      2377      2381 1     
     2363      2381      2382 1     
     2364      2381      2383 1     
     2365      2381      2384 1     
     2366      2368      2376 1     
     2367      2385      2386 1     
     2368      2385      2387 1     
     2369      2385      2388 1     
     2370      2386      2389 1     
     2371      2386      2390 1     
     2372      2390      2391 1     
     2373      2390      2392 1     
     2374      2390      2393 1     
     2375      2377      2385 1     
     2376      2394      2395 1     
     2377      2394      2396 1     
     2378      2394      2397 1     
     2379      2395      2398 1     
     2380      2395      2399 1     
     2381      2399      2400 1     
     2382      2399      2401 1     
     2383      2399      2402 1     
     2384      2386      2394 1     
     2385      2403      2404 1     
     2386      2403      2405 1     
     2387      2403      2406 1     
     2388      2404      2407 1     
     2389      2404      2408 1     
     2390      2408      2409 1     
     2391      2408      2410 1     
     2392      2408      2411 1     
     2393      2395      2403 1     
     2394      2412      2413 1     
     2395      2412      2414 1     
     2396      2412      2415 1     
     2397      2413      2416 1     
     2398      2413      2417 1     
     2399      2417      2418 1     
     2400      2417      2419 1     
     2401      2417      2420 1     
     2402      2404      2412 1     
     2403      2421      2422 1     
     2404      2421      2423 1     
     2405      2421      2424 1     
     2406      2422      2425 1     
     2407      2422      2426 1     
     2408      2426      2427 1     
     2409      2426      2428 1     
     2410      2426      2429 1     
     2411      2413      2421 1     
     2412      2430      2431 1     
     2413      2430      2432 1     
     2414      2430      2433 1     
     2415      2431      2434 1     
     2416      2431      2435 1     
     2417      2435      2436 1     
     2418      2435      2437 1     
     2419      2435      2438 1     
     2420      2422      2430 1     
     2421      2439      2440 1     
     2422      2439      2441 1     
     2423      2439      2442 1     
     2424      2440      2443 1     
     2425      2440      2444 1     
     2426      2444      2445 1     
     2427      2444      2446 1     
     2428      2444      2447 1     
     2429      2431      2439 1     
     2430      2448      2449 1     
     2431      2448      2450 1     
     2432      2448      2451 1     
     2433      2449      2452 1     
     2434      2449      2453 1     
     2435      2453      2454 1     
     2436      2453      2455 1     
     2437      2453      2456 1     
     2438      2440      2448 1     
     2439      2457      2458 1     
     2440      2457      2459 1     
     2441      2457      2460 1     
     2442      2458      2461 1     
     2443      2458      2462 1     
     2444      2458      2463 1     
     2445      2463      2464 1     
     2446      2463      2465 1     
     2447      2463      2466 1     
     2448      2449      2457 1     
     2449      2467      2468 1     
     2450      2467      2469 1     
     2451      2467      2470 1     
     2452      2467      2471 1     
     2453      2468      2472 1     
     2454      2468      2473 1     
     2455      2473      2474 1     
     2456      2473      2475 1     
     2457      2473      2476 1     
     2458      2477      2478 1     
     2459      2477      2479 1     
     2460      2477      2480 1     
     2461      2478      2481 1     
     2462      2478      2482 1     
     2463      2482      2483 1     
     2464      2482      2484 1     
     2465      2482      2485 1     
     2466      2468      2477 1     
     2467      2486      2487 1     
     2468      2486      2488 1     
     2469      2486      2489 1     
     2470      2487      2490 1     
     2471      2487      2491 1     
     2472      2491      2492 1     
     2473      2491      2493 1     
     2474      2491      2494 1     
     2475      2478      2486 1     
     2476      2495      2496 1     
     2477      2495      2497 1     
     2478      2495      2498 1     
     2479      2496      2499 1     
     2480      2496      2500 1     
     2481      2500      2501 1     
     2482      2500      2502 1     
     2483      2500      2503 1     
     2484      2487      2495 1     
     2485      2504      2505 1     
     2486      2504      2506 1     
     2487      2504      2507 1     
     2488      2505      2508 1     
     2489      2505      2509 1     
     2490      2509      2510 1     
     2491      2509      2511 1     
     2492      2509      2512 1     
     2493      2496      2504 1     
     2494      2513      2514 1     
     2495      2513      2515 1     
     2496      2513      2516 1     
     2497      2514      2517 1     
     2498      2514      2518 1     
     2499      2518      2519 1     
     2500      2518      2520 1     
     2501      2518      2521 1     
     2502      2505      2513 1     
     2503      2522      2523 1     
     2504      2522      2524 1     
     2505      2522      2525 1     
     2506      2523      2526 1     
     2507      2523      2527 1     
     2508      2527      2528 1     
     2509      2527      2529 1     
     2510      2527      2530 1     
     2511      2514      2522 1     
     2512      2531      2532 1     
     2513      2531      2533 1     
     2514      2531      2534 1     
     2515      2532      2535 1     
     2516      2532      2536 1     
     2517      2536      2537 1     
     2518      2536      2538 1     
     2519      2536      2539 1     
     2520      2523      2531 1     
     2521      2540      2541 1     
     2522      2540      2542 1     
     2523      2540      2543 1     
     2524      2541      2544 1     
     2525      2541      2545 1     
     2526      2545      2546 1     
     2527      2545      2547 1     
     2528      2545      2548 1     
     2529      2532      2540 1     
     2530      2549      2550 1     
     2531      2549      2551 1     
     2532      2549      2552 1     
     2533      2550      2553 1     
     2534      2550      2554 1     
     2535      2554      2555 1     
     2536      2554      2556 1     
     2537      2554      2557 1     
     2538      2541      2549 1     
     2539      2558      2559 1     
     2540      2558      2560 1     
     2541      2558      2561 1     
     2542      2559      2562 1     
     2543      2559      2563 1     
     2544      2563      2564 1     
     2545      2563      2565 1     
     2546      2563      2566 1     
     2547      2550      2558 1     
     2548      2567      2568 1     
     2549      2567      2569 1     
     2550      2567      2570 1     
     2551      2568      2571 1     
     2552      2568      2572 1     
     2553      2572      2573 1     
     2554      2572      2574 1     
     2555      2572      2575 1     
     2556      2559      2567 1     
     2557      2576      2577 1     
     2558      2576      2578 1     
     2559      2576      2579 1     
     2560      2577      2580 1     
     2561      2577      2581 1     
     2562      2581      2582 1     
     2563      2581      2583 1     
     2564      2581      2584 1     
     2565      2568      2576 1     
     2566      2585      2586 1     
     2567      2585      2587 1     
     2568      2585      2588 1     
     2569      2586      2589 1     
     2570      2586      2590 1     
     2571      2590      2591 1     
     2572      2590      2592 1     
     2573      2590      2593 1     
     2574      2577      2585 1     
     2575      2594      2595 1     
     2576      2594      2596 1     
     2577      2594      2597 1     
     2578      2595      2598 1     
     2579      2595      2599 1     
     2580      2595      2600 1     
     2581      2600      2601 1     
     2582      2600      2602 1     
     2583      2600      2603 1     
     2584      2586      2594 1     
     2585      2604      2605 1     
     2586      2604      2606 1     
     2587      2604      2607 1     
     2588      2604      2608 1     
     2589      2605      2609 1     
     2590      2605      2610 1     
     2591      2610      2611 1     
     2592      2610      2612 1     
     2593      2610      2613 1     
     2594      2614      2615 1     
     2595      2614      2616 1     
     2596      2614      2617 1     
     2597      2615      2618 1     
     2598      2615      2619 1     
     2599      2619      2620 1     
     2600      2619      2621 1     
     2601      2619      2622 1     
     2602      2605      2614 1     
     2603      2623      2624 1     
     2604      2623      2625 1     
     2605      2623      2626 1     
     2606      2624      2627 1     
     2607      2624      2628 1     
     2608      2628      2629 1     
     2609      2628      2630 1     
     2610      2628      2631 1     
     2611      2615      2623 1     
     2612      2632      2633 1     
     2613      2632      2634 1     
     2614      2632      2635 1     
     2615      2633      2636 1     
     2616      2633      2637 1     
     2617      2637      2638 1     
     2618      2637      2639 1     
     2619      2637      2640 1     
     2620      2624      2632 1     
     2621      2641      2642 1     
     2622      2641      2643 1     
     2623      2641      2644 1     
     2624      2642      2645 1     
     2625      2642      2646 1     
     2626      2646      2647 1     
     2627      2646      2648 1     
     2628      2646      2649 1     
     2629      2633      2641 1     
     2630      2650      2651 1     
     2631      2650      2652 1     
     2632      2650      2653 1     
     2633      2651      2654 1     
     2634      2651      2655 1     
     2635      2655      2656 1     
     2636      2655      2657 1     
     2637      2655      2658 1     
     2638      2642      2650 1     
     2639      2659      2660 1     
     2640      2659      2661 1     
     2641      2659      2662 1     
     2642      2660      2663 1     
     2643      2660      2664 1     
     2644      2664      2665 1     
     2645      2664      2666 1     
     2646      2664      2667 1     
     2647      2651      2659 1     
     2648      2668      2669 1     
     2649      2668      2670 1     
     2650      2668      2671 1     
     2651      2669      2672 1     
     2652      2669      2673 1     
     2653      2673      2674 1     
     2654      2673      2675 1     
     2655      2673      2676 1     
     2656      2660      2668 1     
     2657      2677      2678 1     
     2658      2677      2679 1     
     2659      2677      2680 1     
     2660      2678      2681 1     
     2661      2678      2682 1     
     2662      2682      2683 1     
     2663      2682      2684 1     
     2664      2682      2685 1     
     2665      2669      2677 1     
     2666      2686      2687 1     
     2667      2686      2688 1     
     2668      2686      2689 1     
     2669      2687      2690 1     
     2670      2687      2691 1     
     2671      2691      2692 1     
     2672      2691      2693 1     
     2673      2691      2694 1     
     2674      2678      2686 1     
     2675      2695      2696 1     
     2676      2695      2697 1     
     2677      2695      2698 1     
     2678      2696      2699 1     
     2679      2696      2700 1     
     2680      2700      2701 1     
     2681      2700      2702 1     
     2682      2700      2703 1     
     2683      2687      2695 1     
     2684      2704      2705 1     
     2685      2704      2706 1     
     2686      2704      2707 1     
     2687      2705      2708 1     
     2688      2705      2709 1     
     2689      2709      2710 1     
     2690      2709      2711 1     
     2691      2709      2712 1     
     2692      2696      2704 1     
     2693      2713      2714 1     
     2694      2713      2715 1     
     2695      2713      2716 1     
     2696      2714      2717 1     
     2697      2714      2718 1     
     2698      2718      2719 1     
     2699      2718      2720 1     
     2700      2718      2721 1     
     2701      2705      2713 1     
     2702      2722      2723 1     
     2703      2722      2724 1     
     2704      2722      2725 1     
     2705      2723      2726 1     
     2706      2723      2727 1     
     2707      2727      2728 1     
     2708      2727      2729 1     
     2709      2727      2730 1     
     2710      2714      2722 1     
     2711      2731      2732 1     
     2712      2731      2733 1     
     2713      2731      2734 1     
     2714      2732      2735 1     
     2715      2732      2736 1     
     2716      2732      2737 1     
     2717      2737      2738 1     
     2718      2737      2739 1     
     2719      2737      2740 1     
     2720      2723      2731 1     
     2721      2741      2742 1     
     2722      2741      2743 1     
     2723      2741      2744 1     
     2724      2741      2745 1     
     2725      2742      2746 1     
     2726      2742      2747 1     
     2727      2747      2748 1     
     2728      2747      2749 1     
     2729      2747      2750 1     
     2730      2751      2752 1     
     2731      2751      2753 1     
     2732      2751      2754 1     
     2733      2752      2755 1     
     2734      2752      2756 1     
     2735      2756      2757 1     
     2736      2756      2758 1     
     2737      2756      2759 1     
     2738      2742      2751 1     
     2739      2760      2761 1     
     2740      2760      2762 1     
     2741      2760      2763 1     
     2742      2761      2764 1     
     2743      2761      2765 1     
     2744      2765      2766 1     
     2745      2765      2767 1     
     2746      2765      2768 1     
     2747      2752      2760 1     
     2748      2769      2770 1     
     2749      2769      2771 1     
     2750      2769      2772 1     
     2751      2770      2773 1     
     2752      2770      2774 1     
     2753      2774      2775 1     
     2754      2774      2776 1     
     2755      2774      2777 1     
     2756      2761      2769 1     
     2757      2778      2779 1     
     2758      2778      2780 1     
     2759      2778      2781 1     
     2760      2779      2782 1     
     2761      2779      2783 1     
     2762      2783      2784 1     
     2763      2783      2785 1     
     2764      2783      2786 1     
     2765      2770      2778 1     
     2766      2787      2788 1     
     2767      2787      2789 1     
     2768      2787      2790 1     
     2769      2788      2791 1     
     2770      2788      2792 1     
     2771      2792      2793 1     
     2772      2792      2794 1     
     2773      2792      2795 1     
     2774      2779      2787 1     
     2775      2796      2797 1     
     2776      2796      2798 1     
     2777      2796      2799 1     
     2778      2797      2800 1     
     2779      2797      2801 1     
     2780      2801      2802 1     
     2781      2801      2803 1     
     2782      2801      2804 1     
     2783      2788      2796 1     
     2784      2805      2806 1     
     2785      2805      2807 1     
     2786      2805      2808 1     
     2787      2806      2809 1     
     2788      2806      2810 1     
     2789      2810      2811 1     
     2790      2810      2812 1     
     2791      2810      2813 1     
     2792      2797      2805 1     
     2793      2814      2815 1     
     2794      2814      2816 1     
     2795      2814      2817 1     
     2796      2815      2818 1     
     2797      2815      2819 1     
     2798      2819      2820 1     
     2799      2819      2821 1     
     2800      2819      2822 1     
     2801      2806      2814 1     
     2802      2823      2824 1     
     2803      2823      2825 1     
     2804      2823      2826 1     
     2805      2824      2827 1     
     2806      2824      2828 1     
     2807      2828      2829 1     
     2808      2828      2830 1     
     2809      2828      2831 1     
     2810      2815      2823 1     
     2811      2832      2833 1     
     2812      2832      2834 1     
     2813      2832      2835 1     
     2814      2833      2836 1     
     2815      2833      2837 1     
     2816      2837      2838 1     
     2817      2837      2839 1     
     2818      2837      2840 1     
     2819      2824      2832 1     
     2820      2841      2842 1     
     2821      2841      2843 1     
     2822      2841      2844 1     
     2823      2842      2845 1     
     2824      2842      2846 1     
     2825      2846      2847 1     
     2826      2846      2848 1     
     2827      2846      2849 1     
     2828      2833      2841 1     
     2829      2850      2851 1     
     2830      2850      2852 1     
     2831      2850      2853 1     
     2832      2851      2854 1     
     2833      2851      2855 1     
     2834      2855      2856 1     
     2835      2855      2857 1     
     2836      2855      2858 1     
     2837      2842      2850 1     
     2838      2859      2860 1     
     2839      2859      2861 1     
     2840      2859      2862 1     
     2841      2860      2863 1     
     2842      2860      2864 1     
     2843      2864      2865 1     
     2844      2864      2866 1     
     2845      2864      2867 1     
     2846      2851      2859 1     
     2847      2868      2869 1     
     2848      2868      2870 1     
     2849      2868      2871 1     
     2850      2869      2872 1     
     2851      2869      2873 1     
     2852      2869      2874 1     
     2853      2874      2875 1     
     2854      2874      2876 1     
     2855      2874      2877 1     
     2856      2860      2868 1     
     2857      2878      2879 1     
     2858      2878      2880 1     
     2859      2878      2881 1     
     2860      2878      2882 1     
     2861      2879      2883 1     
     2862      2879      2884 1     
     2863      2884      2885 1     
     2864      2884      2886 1     
     2865      2884      2887 1     
     2866      2888      2889 1     
     2867      2888      2890 1     
     2868      2888      2891 1     
     2869      2889      2892 1     
     2870      2889      2893 1     
     2871      2893      2894 1     
     2872      2893      2895 1     
     2873      2893      2896 1     
     2874      2879      2888 1     
     2875      2897      2898 1     
     2876      2897      2899 1     
     2877      2897      2900 1     
     2878      2898      2901 1     
     2879      2898      2902 1     
     2880      2902      2903 1     
     2881      2902      2904 1     
     2882      2902      2905 1     
     2883      2889      2897 1     
     2884      2906      2907 1     
     2885      2906      2908 1     
     2886      2906      2909 1     
     2887      2907      2910 1     
     2888      2907      2911 1     
     2889      2911      2912 1     
     2890      2911      2913 1     
     2891      2911      2914 1     
     2892      2898      2906 1     
     2893      2915      2916 1     
     2894      2915      2917 1     
     2895      2915      2918 1     
     2896      2916      2919 1     
     2897      2916      2920 1     
     2898      2920      2921 1     
     2899      2920      2922 1     
     2900      2920      2923 1     
     2901      2907      2915 1     
     2902      2924      2925 1     
     2903      2924      2926 1     
     2904      2924      2927 1     
     2905      2925      2928 1     
     2906      2925      2929 1     
     2907      2929      2930 1     
     2908      2929      2931 1     
     2909      2929      2932 1     
     2910      2916      2924 1     
     2911      2933      2934 1     
     2912      2933      2935 1     
     2913      2933      2936 1     
     2914      2934      2937 1     
     2915      2934      2938 1     
     2916      2938      2939 1     
     2917      2938      2940 1     
     2918      2938      2941 1     
     2919      2925      2933 1     
     2920      2942      2943 1     
     2921      2942      2944 1     
     2922      2942      2945 1     
     2923      2943      2946 1     
     2924      2943      2947 1     
     2925      2947      2948 1     
     2926      2947      2949 1     
     2927      2947      2950 1     
     2928      2934      2942 1     
     2929      2951      2952 1     
     2930      2951      2953 1     
     2931      2951      2954 1     
     2932      2952      2955 1     
     2933      2952      2956 1     
     2934      2956      2957 1     
     2935      2956      2958 1     
     2936      2956      2959 1     
     2937      2943      2951 1     
     2938      2960      2961 1     
     2939      2960      2962 1     
     2940      2960      2963 1     
     2941      2961      2964 1     
     2942      2961      2965 1     
     2943      2965      2966 1     
     2944      2965      2967 1     
     2945      2965      2968 1     
     2946      2952      2960 1     
     2947      2969      2970 1     
     2948      2969      2971 1     
     2949      2969      2972 1     
     2950      2970      2973 1     
     2951      2970      2974 1     
     2952      2974      2975 1     
     2953      2974      2976 1     
     2954      2974      2977 1     
     2955      2961      2969 1     
     2956      2978      2979 1     
     2957      2978      2980 1     
     2958      2978      2981 1     
     2959      2979      2982 1     
     2960      2979      2983 1     
     2961      2983      2984 1     
     2962      2983      2985 1     
     2963      2983      2986 1     
     2964      2970      2978 1     
     2965      2987      2988 1     
     2966      2987      2989 1     
     2967      2987      2990 1     
     2968      2988      2991 1     
     2969      2988      2992 1     
     2970      2992      2993 1     
     2971      2992      2994 1     
     2972      2992      2995 1     
     2973      2979      2987 1     
     2974      2996      2997 1     
     2975      2996      2998 1     
     2976      2996      2999 1     
     2977      2997      3000 1     
     2978      2997      3001 1     
     2979      3001      3002 1     
     2980      3001      3003 1     
     2981      3001      3004 1     
     2982      2988      2996 1     
     2983      3005      3006 1     
     2984      3005      3007 1     
     2985      3005      3008 1     
     2986      3006      3009 1     
     2987      3006      3010 1     
     2988      3006      3011 1     
     2989      3011      3012 1     
     2990      3011      3013 1     
     2991      3011      3014 1     
     2992      2997      3005 1     
     2993      3015      3016 1     
     2994      3015      3017 1     
     2995      3015      3018 1     
     2996      3015      3019 1     
     2997      3016      3020 1     
     2998      3016      3021 1     
     2999      3021      3022 1     
     3000      3021      3023 1     
     3001      3021      3024 1     
     3002      3025      3026 1     
     3003      3025      3027 1     
     3004      3025      3028 1     
     3005      3026      3029 1     
     3006      3026      3030 1     
     3007      3030      3031 1     
     3008      3030      3032 1     
     3009      3030      3033 1     
     3010      3016      3025 1     
     3011      3034      3035 1     
     3012      3034      3036 1     
     3013      3034      3037 1     
     3014      3035      3038 1     
     3015      3035      3039 1     
     3016      3039      3040 1     
     3017      3039      3041 1     
     3018      3039      3042 1     
     3019      3026      3034 1     
     3020      3043      3044 1     
     3021      3043      3045 1     
     3022      3043      3046 1     
     3023      3044      3047 1     
     3024      3044      3048 1     
     3025      3048      3049 1     
     3026      3048      3050 1     
     3027      3048      3051 1     
     3028      3035      3043 1     
     3029      3052      3053 1     
     3030      3052      3054 1     
     3031      3052      3055 1     
     3032      3053      3056 1     
     3033      3053      3057 1     
     3034      3057      3058 1     
     3035      3057      3059 1     
     3036      3057      3060 1     
     3037      3044      3052 1     
     3038      3061      3062 1     
     3039      3061      3063 1     
     3040      3061      3064 1     
     3041      3062      3065 1     
     3042      3062      3066 1     
     3043      3066      3067 1     
     3044      3066      3068 1     
     3045      3066      3069 1     
     3046      3053      3061 1     
     3047      3070      3071 1     
     3048      3070      3072 1     
     3049      3070      3073 1     
     3050      3071      3074 1     
     3051      3071      3075 1     
     3052      3075      3076 1     
     3053      3075      3077 1     
     3054      3075      3078 1     
     3055      3062      3070 1     
     3056      3079      3080 1     
     3057      3079      3081 1     
     3058      3079      3082 1     
     3059      3080      3083 1     
     3060      3080      3084 1     
     3061      3084      3085 1     
     3062      3084      3086 1     
     3063      3084      3087 1     
     3064      3071      3079 1     
     3065      3088      3089 1     
     3066      3088      3090 1     
     3067      3088      3091 1     
     3068      3089      3092 1     
     3069      3089      3093 1     
     3070      3093      3094 1     
     3071      3093      3095 1     
     3072      3093      3096 1     
     3073      3080      3088 1     
     3074      3097      3098 1     
     3075      3097      3099 1     
     3076      3097      3100 1     
     3077      3098      3101 1     
     3078      3098      3102 1     
     3079      3102      3103 1     
     3080      3102      3104 1     
     3081      3102      3105 1     
     3082      3089      3097 1     
     3083      3106      3107 1     
     3084      3106      3108 1     
     3085      3106      3109 1     
     3086      3107      3110 1     
     3087      3107      3111 1     
     3088      3111      3112 1     
     3089      3111      3113 1     
     3090      3111      3114 1     
     3091      3098      3106 1     
     3092      3115      3116 1     
     3093      3115      3117 1     
     3094      3115      3118 1     
     3095      3116      3119 1     
     3096      3116      3120 1     
     3097      3120      3121 1     
     3098      3120      3122 1     
     3099      3120      3123 1     
     3100      3107      3115 1     
     3101      3124      3125 1     
     3102      3124      3126 1     
     3103      3124      3127 1     
     3104      3125      3128 1     
     3105      3125      3129 1     
     3106      3129      3130 1     
     3107      3129      3131 1     
     3108      3129      3132 1     
     3109      3116      3124 1     
     3110      3133      3134 1     
     3111      3133      3135 1     
     3112      3133      3136 1     
     3113      3134      3137 1     
     3114      3134      3138 1     
     3115      3138      3139 1     
     3116      3138      3140 1     
     3117      3138      3141 1     
     3118      3125      3133 1     
     3119      3142      3143 1     
     3120      3142      3144 1     
     3121      3142      3145 1     
     3122      3143      3146 1     
     3123      3143      3147 1     
     3124      3143      3148 1     
     3125      3148      3149 1     
     3126      3148      3150 1     
     3127      3148      3151 1     
     3128      3134      3142 1     
     3129      3152      3153 1     
     3130      3152      3154 1     
     3131      3152      3155 1     
     3132      3152      3156 1     
     3133      3153      3157 1     
     3134      3153      3158 1     
     3135      3158      3159 1     
     3136      3158      3160 1     
     3137      3158      3161 1     
     3138      3162      3163 1     
     3139      3162      3164 1     
     3140      3162      3165 1     
     3141      3163      3166 1     
     3142      3163      3167 1     
     3143      3167      3168 1     
     3144      3167      3169 1     
     3145      3167      3170 1     
     3146      3153      3162 1     
     3147      3171      3172 1     
     3148      3171      3173 1     
     3149      3171      3174 1     
     3150      3172      3175 1     
     3151      3172      3176 1     
     3152      3176      3177 1     
     3153      3176      3178 1     
     3154      3176      3179 1     
     3155      3163      3171 1     
     3156      3180      3181 1     
     3157      3180      3182 1     
     3158      3180      3183 1     
     3159      3181      3184 1     
     3160      3181      3185 1     
     3161      3185      3186 1     
     3162      3185      3187 1     
     3163      3185      3188 1     
     3164      3172      3180 1     
     3165      3189      3190 1     
     3166      3189      3191 1     
     3167      3189      3192 1     
     3168      3190      3193 1     
     3169      3190      3194 1     
     3170      3194      3195 1     
     3171      3194      3196 1     
     3172      3194      3197 1     
     3173      3181      3189 1     
     3174      3198      3199 1     
     3175      3198      3200 1     
     3176      3198      3201 1     
     3177      3199      3202 1     
     3178      3199      3203 1     
     3179      3203      3204 1     
     3180      3203      3205 1     
     3181      3203      3206 1     
     3182      3190      3198 1     
     3183      3207      3208 1     
     3184      3207      3209 1     
     3185      3207      3210 1     
     3186      3208      3211 1     
     3187      3208      3212 1     
     3188      3212      3213 1     
     3189      3212      3214 1     
     3190      3212      3215 1     
     3191      3199      3207 1     
     3192      3216      3217 1     
     3193      3216      3218 1     
     3194      3216      3219 1     
     3195      3217      3220 1     
     3196      3217      3221 1     
     3197      3221      3222 1     
     3198      3221      3223 1     
     3199      3221      3224 1     
     3200      3208      3216 1     
     3201      3225      3226 1     
     3202      3225      3227 1     
     3203      3225      3228 1     
     3204      3226      3229 1     
     3205      3226      3230 1     
     3206      3230      3231 1     
     3207      3230      3232 1     
     3208      3230      3233 1     
     3209      3217      3225 1     
     3210      3234      3235 1     
     3211      3234      3236 1     
     3212      3234      3237 1     
     3213      3235      3238 1     
     3214      3235      3239 1     
     3215      3239      3240 1     
     3216      3239      3241 1     
     3217      3239      3242 1     
     3218      3226      3234 1     
     3219      3243      3244 1     
     3220      3243      3245 1     
     3221      3243      3246 1     
     3222      3244      3247 1     
     3223      3244      3248 1     
     3224      3248      3249 1     
     3225      3248      3250 1     
     3226      3248      3251 1     
     3227      3235      3243 1     
     3228      3252      3253 1     
     3229      3252      3254 1     
     3230      3252      3255 1     
     3231      3253      3256 1     
     3232      3253      3257 1     
     3233      3257      3258 1     
     3234      3257      3259 1     
     3235      3257      3260 1     
     3236      3244      3252 1     
     3237      3261      3262 1     
     3238      3261      3263 1     
     3239      3261      3264 1     
     3240      3262      3265 1     
     3241      3262      3266 1     
     3242      3266      3267 1     
     3243      3266      3268 1     
     3244      3266      3269 1     
     3245      3253      3261 1     
     3246      3270      3271 1     
     3247      3270      3272 1     
     3248      3270      3273 1     
     3249      3271      3274 1     
     3250      3271      3275 1     
     3251      3275      3276 1     
     3252      3275      3277 1     
     3253      3275      3278 1     
     3254      3262      3270 1     
     3255      3279      3280 1     
     3256      3279      3281 1     
     3257      3279      3282 1     
     3258      3280      3283 1     
     3259      3280      3284 1     
     3260      3280      3285 1     
     3261      3285      3286 1     
     3262      3285      3287 1     
     3263      3285      3288 1     
     3264      3271      3279 1     
     3265      3289      3290 1     
     3266      3289      3291 1     
     3267      3289      3292 1     
     3268      3289      3293 1     
     3269      3290      3294 1     
     3270      3290      3295 1     
     3271      3295      3296 1     
     3272      3295      3297 1     
     3273      3295      3298 1     
     3274      3299      3300 1     
     3275      3299      3301 1     
     3276      3299      3302 1     
     3277      3300      3303 1     
     3278      3300      3304 1     
     3279      3304      3305 1     
     3280      3304      3306 1     
     3281      3304      3307 1     
     3282      3290      3299 1     
     3283      3308      3309 1     
     3284      3308      3310 1     
     3285      3308      3311 1     
     3286      3309      3312 1     
     3287      3309      3313 1     
     3288      3313      3314 1     
     3289      3313      3315 1     
     3290      3313      3316 1     
     3291      3300      3308 1     
     3292      3317      3318 1     
     3293      3317      3319 1     
     3294      3317      3320 1     
     3295      3318      3321 1     
     3296      3318      3322 1     
     3297      3322      3323 1     
     3298      3322      3324 1     
     3299      3322      3325 1     
     3300      3309      3317 1     
     3301      3326      3327 1     
     3302      3326      3328 1     
     3303      3326      3329 1     
     3304      3327      3330 1     
     3305      3327      3331 1     
     3306      3331      3332 1     
     3307      3331      3333 1     
     3308      3331      3334 1     
     3309      3318      3326 1     
     3310      3335      3336 1     
     3311      3335      3337 1     
     3312      3335      3338 1     
     3313      3336      3339 1     
     3314      3336      3340 1     
     3315      3340      3341 1     
     3316      3340      3342 1     
     3317      3340      3343 1     
     3318      3327      3335 1     
     3319      3344      3345 1     
     3320      3344      3346 1     
     3321      3344      3347 1     
     3322      3345      3348 1     
     3323      3345      3349 1     
     3324      3349      3350 1     
     3325      3349      3351 1     
     3326      3349      3352 1     
     3327      3336      3344 1     
     3328      3353      3354 1     
     3329      3353      3355 1     
     3330      3353      3356 1     
     3331      3354      3357 1     
     3332      3354      3358 1     
     3333      3358      3359 1     
     3334      3358      3360 1     
     3335      3358      3361 1     
     3336      3345      3353 1     
     3337      3362      3363 1     
     3338      3362      3364 1     
     3339      3362      3365 1     
     3340      3363      3366 1     
     3341      3363      3367 1     
     3342      3367      3368 1     
     3343      3367      3369 1     
     3344      3367      3370 1     
     3345      3354      3362 1     
     3346      3371      3372 1     
     3347      3371      3373 1     
     3348      3371      3374 1     
     3349      3372      3375 1     
     3350      3372      3376 1     
     3351      3376      3377 1     
     3352      3376      3378 1     
     3353      3376      3379 1     
     3354      3363      3371 1     
     3355      3380      3381 1     
     3356      3380      3382 1     
     3357      3380      3383 1     
     3358      3381      3384 1     
     3359      3381      3385 1     
     3360      3385      3386 1     
     3361      3385      3387 1     
     3362      3385      3388 1     
     3363      3372      3380 1     
     3364      3389      3390 1     
     3365      3389      3391 1     
     3366      3389      3392 1     
     3367      3390      3393 1     
     3368      3390      3394 1     
     3369      3394      3395 1     
     3370      3394      3396 1     
     3371      3394      3397 1     
     3372      3381      3389 1     
     3373      3398      3399 1     
     3374      3398      3400 1     
     3375      3398      3401 1     
     3376      3399      3402 1     
     3377      3399      3403 1     
     3378      3403      3404 1     
     3379      3403      3405 1     
     3380      3403      3406 1     
     3381      3390      3398 1     
     3382      3407      3408 1     
     3383      3407      3409 1     
     3384      3407      3410 1     
     3385      3408      3411 1     
     3386      3408      3412 1     
     3387      3412      3413 1     
     3388      3412      3414 1     
     3389      3412      3415 1     
     3390      3399      3407 1     
     3391      3416      3417 1     
     3392      3416      3418 1     
     3393      3416      3419 1     
     3394      3417      3420 1     
     3395      3417      3421 1     
     3396      3417      3422 1     
     3397      3422      3423 1     
     3398      3422      3424 1     
     3399      3422      3425 1     
     3400      3408      3416 1     
     3401      3426      3427 1     
     3402      3426      3428 1     
     3403      3426      3429 1     
     3404      3426      3430 1     
     3405      3427      3431 1     
     3406      3427      3432 1     
     3407      3432      3433 1     
     3408      3432      3434 1     
     3409      3432      3435 1     
     3410      3436      3437 1     
     3411      3436      3438 1     
     3412      3436      3439 1     
     3413      3437      3440 1     
     3414      3437      3441 1     
     3415      3441      3442 1     
     3416      3441      3443 1     
     3417      3441      3444 1     
     3418      3427      3436 1     
     3419      3445      3446 1     
     3420      3445      3447 1     
     3421      3445      3448 1     
     3422      3446      3449 1     
     3423      3446      3450 1     
     3424      3450      3451 1     
     3425      3450      3452 1     
     3426      3450      3453 1     
     3427      3437      3445 1     
     3428      3454      3455 1     
     3429      3454      3456 1     
     3430      3454      3457 1     
     3431      3455      3458 1     
     3432      3455      3459 1     
     3433      3459      3460 1     
     3434      3459      3461 1     
     3435      3459      3462 1     
     3436      3446      3454 1     
     3437      3463      3464 1     
     3438      3463      3465 1     
     3439      3463      3466 1     
     3440      3464      3467 1     
     3441      3464      3468 1     
     3442      3468      3469 1     
     3443      3468      3470 1     
     3444      3468      3471 1     
     3445      3455      3463 1     
     3446      3472      3473 1     
     3447      3472      3474 1     
     3448      3472      3475 1     
     3449      3473      3476 1     
     3450      3473      3477 1     
     3451      3477      3478 1     
     3452      3477      3479 1     
     3453      3477      3480 1     
     3454      3464      3472 1     
     3455      3481      3482 1     
     3456      3481      3483 1     
     3457      3481      3484 1     
     3458      3482      3485 1     
     3459      3482      3486 1     
     3460      3486      3487 1     
     3461      3486      3488 1     
     3462      3486      3489 1     
     3463      3473      3481 1     
     3464      3490      3491 1     
     3465      3490      3492 1     
     3466      3490      3493 1     
     3467      3491      3494 1     
     3468      3491      3495 1     
     3469      3495      3496 1     
     3470      3495      3497 1     
     3471      3495      3498 1     
     3472      3482      3490 1     
     3473      3499      3500 1     
     3474      3499      3501 1     
     3475      3499      3502 1     
     3476      3500      3503 1     
     3477      3500      3504 1     
     3478      3504      3505 1     
     3479      3504      3506 1     
     3480      3504      3507 1     
     3481      3491      3499 1     
     3482      3508      3509 1     
     3483      3508      3510 1     
     3484      3508      3511 1     
     3485      3509      3512 1     
     3486      3509      3513 1     
     3487      3513      3514 1     
     3488      3513      3515 1     
     3489      3513      3516 1     
     3490      3500      3508 1     
     3491      3517      3518 1     
     3492      3517      3519 1     
     3493      3517      3520 1     
     3494      3518      3521 1     
     3495      3518      3522 1     
     3496      3522      3523 1     
     3497      3522      3524 1     
     3498      3522      3525 1     
     3499      3509      3517 1     
     3500      3526      3527 1     
     3501      3526      3528 1     
     3502      3526      3529 1     
     3503      3527      3530 1     
     3504      3527      3531 1     
     3505      3531      3532 1     
     3506      3531      3533 1     
     3507      3531      3534 1     
     3508      3518      3526 1     
     3509      3535      3536 1     
     3510      3535      3537 1     
     3511      3535      3538 1     
     3512      3536      3539 1     
     3513      3536      3540 1     
     3514      3540      3541 1     
     3515      3540      3542 1     
     3516      3540      3543 1     
     3517      3527      3535 1     
     3518      3544      3545 1     
     3519      3544      3546 1     
     3520      3544      3547 1     
     3521      3545      3548 1     
     3522      3545      3549 1     
     3523      3549      3550 1     
     3524      3549      3551 1     
     3525      3549      3552 1     
     3526      3536      3544 1     
     3527      3553      3554 1     
     3528      3553      3555 1     
     3529      3553      3556 1     
     3530      3554      3557 1     
     3531      3554      3558 1     
     3532      3554      3559 1     
     3533      3559      3560 1     
     3534      3559      3561 1     
     3535      3559      3562 1     
     3536      3545      3553 1     
     3537      3563      3564 1     
     3538      3563      3565 1     
     3539      3563      3566 1     
     3540      3563      3567 1     
     3541      3564      3568 1     
     3542      3564      3569 1     
     3543      3569      3570 1     
     3544      3569      3571 1     
     3545      3569      3572 1     
     3546      3573      3574 1     
     3547      3573      3575 1     
     3548      3573      3576 1     
     3549      3574      3577 1     
     3550      3574      3578 1     
     3551      3578      3579 1     
     3552      3578      3580 1     
     3553      3578      3581 1     
     3554      3564      3573 1     
     3555      3582      3583 1     
     3556      3582      3584 1     
     3557      3582      3585 1     
     3558      3583      3586 1     
     3559      3583      3587 1     
     3560      3587      3588 1     
     3561      3587      3589 1     
     3562      3587      3590 1     
     3563      3574      3582 1     
     3564      3591      3592 1     
     3565      3591      3593 1     
     3566      3591      3594 1     
     3567      3592      3595 1     
     3568      3592      3596 1     
     3569      3596      3597 1     
     3570      3596      3598 1     
     3571      3596      3599 1     
     3572      3583      3591 1     
     3573      3600      3601 1     
     3574      3600      3602 1     
     3575      3600      3603 1     
     3576      3601      3604 1     
     3577      3601      3605 1     
     3578      3605      3606 1     
     3579      3605      3607 1     
     3580      3605      3608 1     
     3581      3592      3600 1     
     3582      3609      3610 1     
     3583      3609      3611 1     
     3584      3609      3612 1     
     3585      3610      3613 1     
     3586      3610      3614 1     
     3587      3614      3615 1     
     3588      3614      3616 1     
     3589      3614      3617 1     
     3590      3601      3609 1     
     3591      3618      3619 1     
     3592      3618      3620 1     
     3593      3618      3621 1     
     3594      3619      3622 1     
     3595      3619      3623 1     
     3596      3623      3624 1     
     3597      3623      3625 1     
     3598      3623      3626 1     
     3599      3610      3618 1     
     3600      3627      3628 1     
     3601      3627      3629 1     
     3602      3627      3630 1     
     3603      3628      3631 1     
     3604      3628      3632 1     
     3605      3632      3633 1     
     3606      3632      3634 1     
     3607      3632      3635 1     
     3608      3619      3627 1     
     3609      3636      3637 1     
     3610      3636      3638 1     
     3611      3636      3639 1     
     3612      3637      3640 1     
     3613      3637      3641 1     
     3614      3641      3642 1     
     3615      3641      3643 1     
     3616      3641      3644 1     
     3617      3628      3636 1     
     3618      3645      3646 1     
     3619      3645      3647 1     
     3620      3645      3648 1     
     3621      3646      3649 1     
     3622      3646      3650 1     
     3623      3650      3651 1     
     3624      3650      3652 1     
     3625      3650      3653 1     
     3626      3637      3645 1     
     3627      3654      3655 1     
     3628      3654      3656 1     
     3629      3654      3657 1     
     3630      3655      3658 1     
     3631      3655      3659 1     
     3632      3659      3660 1     
     3633      3659      3661 1     
     3634      3659      3662 1     
     3635      3646      3654 1     
     3636      3663      3664 1     
     3637      3663      3665 1     
     3638      3663      3666 1     
     3639      3664      3667 1     
     3640      3664      3668 1     
     3641      3668      3669 1     
     3642      3668      3670 1     
     3643      3668      3671 1     
     3644      3655      3663 1     
     3645      3672      3673 1     
     3646      3672      3674 1     
     3647      3672      3675 1     
     3648      3673      3676 1     
     3649      3673      3677 1     
     3650      3677      3678 1     
     3651      3677      3679 1     
     3652      3677      3680 1     
     3653      3664      3672 1     
     3654      3681      3682 1     
     3655      3681      3683 1     
     3656      3681      3684 1     
     3657      3682      3685 1     
     3658      3682      3686 1     
     3659      3686      3687 1     
     3660      3686      3688 1     
     3661      3686      3689 1     
     3662      3673      3681 1     
     3663      3690      3691 1     
     3664      3690      3692 1     
     3665      3690      3693 1     
     3666      3691      3694 1     
     3667      3691      3695 1     
     3668      3691      3696 1     
     3669      3696      3697 1     
     3670      3696      3698 1     
     3671      3696      3699 1     
     3672      3682      3690 1     
     3673      3700      3701 1     
     3674      3700      3702 1     
     3675      3700      3703 1     
     3676      3700      3704 1     
     3677      3701      3705 1     
     3678      3701      3706 1     
     3679      3706      3707 1     
     3680      3706      3708 1     
     3681      3706      3709 1     
     3682      3710      3711 1     
     3683      3710      3712 1     
     3684      3710      3713 1     
     3685      3711      3714 1     
     3686      3711      3715 1     
     3687      3715      3716 1     
     3688      3715      3717 1     
     3689      3715      3718 1     
     3690      3701      3710 1     
     3691      3719      3720 1     
     3692      3719      3721 1     
     3693      3719      3722 1     
     3694      3720      3723 1     
     3695      3720      3724 1     
     3696      3724      3725 1     
     3697      3724      3726 1     
     3698      3724      3727 1     
     3699      3711      3719 1     
     3700      3728      3729 1     
     3701      3728      3730 1     
     3702      3728      3731 1     
     3703      3729      3732 1     
     3704      3729      3733 1     
     3705      3733      3734 1     
     3706      3733      3735 1     
     3707      3733      3736 1     
     3708      3720      3728 1     
     3709      3737      3738 1     
     3710      3737      3739 1     
     3711      3737      3740 1     
     3712      3738      3741 1     
     3713      3738      3742 1     
     3714      3742      3743 1     
     3715      3742      3744 1     
     3716      3742      3745 1     
     3717      3729      3737 1     
     3718      3746      3747 1     
     3719      3746      3748 1     
     3720      3746      3749 1     
     3721      3747      3750 1     
     3722      3747      3751 1     
     3723      3751      3752 1     
     3724      3751      3753 1     
     3725      3751      3754 1     
     3726      3738      3746 1     
     3727      3755      3756 1     
     3728      3755      3757 1     
     3729      3755      3758 1     
     3730      3756      3759 1     
     3731      3756      3760 1     
     3732      3760      3761 1     
     3733      3760      3762 1     
     3734      3760      3763 1     
     3735      3747      3755 1     
     3736      3764      3765 1     
     3737      3764      3766 1     
     3738      3764      3767 1     
     3739      3765      3768 1     
     3740      3765      3769 1     
     3741      3769      3770 1     
     3742      3769      3771 1     
     3743      3769      3772 1     
     3744      3756      3764 1     
     3745      3773      3774 1     
     3746      3773      3775 1     
     3747      3773      3776 1     
     3748      3774      3777 1     
     3749      3774      3778 1     
     3750      3778      3779 1     
     3751      3778      3780 1     
     3752      3778      3781 1     
     3753      3765      3773 1     
     3754      3782      3783 1     
     3755      3782      3784 1     
     3756      3782      3785 1     
     3757      3783      3786 1     
     3758      3783      3787 1     
     3759      3787      3788 1     
     3760      3787      3789 1     
     3761      3787      3790 1     
     3762      3774      3782 1     
     3763      3791      3792 1     
     3764      3791      3793 1     
     3765      3791      3794 1     
     3766      3792      3795 1     
     3767      3792      3796 1     
     3768      3796      3797 1     
     3769      3796      3798 1     
     3770      3796      3799 1     
     3771      3783      3791 1     
     3772      3800      3801 1     
     3773      3800      3802 1     
     3774      3800      3803 1     
     3775      3801      3804 1     
     3776      3801      3805 1     
     3777      3805      3806 1     
     3778      3805      3807 1     
     3779      3805      3808 1     
     3780      3792      3800 1     
     3781      3809      3810 1     
     3782      3809      3811 1     
     3783      3809      3812 1     
     3784      3810      3813 1     
     3785      3810      3814 1     
     3786      3814      3815 1     
     3787      3814      3816 1     
     3788      3814      3817 1     
     3789      3801      3809 1     
     3790      3818      3819 1     
     3791      3818      3820 1     
     3792      3818      3821 1     
     3793      3819      3822 1     
     3794      3819      3823 1     
     3795      3823      3824 1     
     3796      3823      3825 1     
     3797      3823      3826 1     
     3798      3810      3818 1     
     3799      3827      3828 1     
     3800      3827      3829 1     
     3801      3827      3830 1     
     3802      3828      3831 1     
     3803      3828      3832 1     
     3804      3828      3833 1     
     3805      3833      3834 1     
     3806      3833      3835 1     
     3807      3833      3836 1     
     3808      3819      3827 1     
     3809      3837      3838 1     
     3810      3837      3839 1     
     3811      3837      3840 1     
     3812      3837      3841 1     
     3813      3838      3842 1     
     3814      3838      3843 1     
     3815      3843      3844 1     
     3816      3843      3845 1     
     3817      3843      3846 1     
     3818      3847      3848 1     
     3819      3847      3849 1     
     3820      3847      3850 1     
     3821      3848      3851 1     
     3822      3848      3852 1     
     3823      3852      3853 1     
     3824      3852      3854 1     
     3825      3852      3855 1     
     3826      3838      3847 1     
     3827      3856      3857 1     
     3828      3856      3858 1     
     3829      3856      3859 1     
     3830      3857      3860 1     
     3831      3857      3861 1     
     3832      3861      3862 1     
     3833      3861      3863 1     
     3834      3861      3864 1     
     3835      3848      3856 1     
     3836      3865      3866 1     
     3837      3865      3867 1     
     3838      3865      3868 1     
     3839      3866      3869 1     
     3840      3866      3870 1     
     3841      3870      3871 1     
     3842      3870      3872 1     
     3843      3870      3873 1     
     3844      3857      3865 1     
     3845      3874      3875 1     
     3846      3874      3876 1     
     3847      3874      3877 1     
     3848      3875      3878 1     
     3849      3875      3879 1     
     3850      3879      3880 1     
     3851      3879      3881 1     
     3852      3879      3882 1     
     3853      3866      3874 1     
     3854      3883      3884 1     
     3855      3883      3885 1     
     3856      3883      3886 1     
     3857      3884      3887 1     
     3858      3884      3888 1     
     3859      3888      3889 1     
     3860      3888      3890 1     
     3861      3888      3891 1     
     3862      3875      3883 1     
     3863      3892      3893 1     
     3864      3892      3894 1     
     3865      3892      3895 1     
     3866      3893      3896 1     
     3867      3893      3897 1     
     3868      3897      3898 1     
     3869      3897      3899 1     
     3870      3897      3900 1     
     3871      3884      3892 1     
     3872      3901      3902 1     
     3873      3901      3903 1     
     3874      3901      3904 1     
     3875      3902      3905 1     
     3876      3902      3906 1     
     3877      3906      3907 1     
     3878      3906      3908 1     
     3879      3906      3909 1     
     3880      3893      3901 1     
     3881      3910      3911 1     
     3882      3910      3912 1     
     3883      3910      3913 1     
     3884      3911      3914 1     
     3885      3911      3915 1     
     3886      3915      3916 1     
     3887      3915      3917 1     
     3888      3915      3918 1     
     3889      3902      3910 1     
     3890      3919      3920 1     
     3891      3919      3921 1     
     3892      3919      3922 1     
     3893      3920      3923 1     
     3894      3920      3924 1     
     3895      3924      3925 1     
     3896      3924      3926 1     
     3897      3924      3927 1     
     3898      3911      3919 1     
     3899      3928      3929 1     
     3900      3928      3930 1     
     3901      3928      3931 1     
     3902      3929      3932 1     
     3903      3929      3933 1     
     3904      3933      3934 1     
     3905      3933      3935 1     
     3906      3933      3936 1     
     3907      3920      3928 1     
     3908      3937      3938 1     
     3909      3937      3939 1     
     3910      3937      3940 1     
     3911      3938      3941 1     
     3912      3938      3942 1     
     3913      3942      3943 1     
     3914      3942      3944 1     
     3915      3942      3945 1     
     3916      3929      3937 1     
     3917      3946      3947 1     
     3918      3946      3948 1     
     3919      3946      3949 1     
     3920      3947      3950 1     
     3921      3947      3951 1     
     3922      3951      3952 1     
     3923      3951      3953 1     
     3924      3951      3954 1     
     3925      3938      3946 1     
     3926      3955      3956 1     
     3927      3955      3957 1     
     3928      3955      3958 1     
     3929      3956      3959 1     
     3930      3956      3960 1     
     3931      3960      3961 1     
     3932      3960      3962 1     
     3933      3960      3963 1     
     3934      3947      3955 1     
     3935      3964      3965 1     
     3936      3964      3966 1     
     3937      3964      3967 1     
     3938      3965      3968 1     
     3939      3965      3969 1     
     3940      3965      3970 1     
     3941      3970      3971 1     
     3942      3970      3972 1     
     3943      3970      3973 1     
     3944      3956      3964 1     
     3945      3974      3975 1     
     3946      3974      3976 1     
     3947      3974      3977 1     
     3948      3974      3978 1     
     3949      3975      3979 1     
     3950      3975      3980 1     
     3951      3980      3981 1     
     3952      3980      3982 1     
     3953      3980      3983 1     
     3954      3984      3985 1     
     3955      3984      3986 1     
     3956      3984      3987 1     
     3957      3985      3988 1     
     3958      3985      3989 1     
     3959      3989      3990 1     
     3960      3989      3991 1     
     3961      3989      3992 1     
     3962      3975      3984 1     
     3963      3993      3994 1     
     3964      3993      3995 1     
     3965      3993      3996 1     
     3966      3994      3997 1     
     3967      3994      3998 1     
     3968      3998      3999 1     
     3969      3998      4000 1     
     3970      3998      4001 1     
     3971      3985      3993 1     
     3972      4002      4003 1     
     3973      4002      4004 1     
     3974      4002      4005 1     
     3975      4003      4006 1     
     3976      4003      4007 1     
     3977      4007      4008 1     
     3978      4007      4009 1     
     3979      4007      4010 1     
     3980      3994      4002 1     
     3981      4011      4012 1     
     3982      4011      4013 1     
     3983      4011      4014 1     
     3984      4012      4015 1     
     3985      4012      4016 1     
     3986      4016      4017 1     
     3987      4016      4018 1     
     3988      4016      4019 1     
     3989      4003      4011 1     
     3990      4020      4021 1     
     3991      4020      4022 1     
     3992      4020      4023 1     
     3993      4021      4024 1     
     3994      4021      4025 1     
     3995      4025      4026 1     
     3996      4025      4027 1     
     3997      4025      4028 1     
     3998      4012      4020 1     
     3999      4029      4030 1     
     4000      4029      4031 1     
     4001      4029      4032 1     
     4002      4030      4033 1     
     4003      4030      4034 1     
     4004      4034      4035 1     
     4005      4034      4036 1     
     4006      4034      4037 1     
     4007      4021      4029 1     
     4008      4038      4039 1     
     4009      4038      4040 1     
     4010      4038      4041 1     
     4011      4039      4042 1     
     4012      4039      4043 1     
     4013      4043      4044 1     
     4014      4043      4045 1     
     4015      4043      4046 1     
     4016      4030      4038 1     
     4017      4047      4048 1     
     4018      4047      4049 1     
     4019      4047      4050 1     
     4020      4048      4051 1     
     4021      4048      4052 1     
     4022      4052      4053 1     
     4023      4052      4054 1     
     4024      4052      4055 1     
     4025      4039      4047 1     
     4026      4056      4057 1     
     4027      4056      4058 1     
     4028      4056      4059 1     
     4029      4057      4060 1     
     4030      4057      4061 1     
     4031      4061      4062 1     
     4032      4061      4063 1     
     4033      4061      4064 1     
     4034      4048      4056 1     
     4035      4065      4066 1     
     4036      4065      4067 1     
     4037      4065      4068 1     
     4038      4066      4069 1     
     4039      4066      4070 1     
     4040      4070      4071 1     
     4041      4070      4072 1     
     4042      4070      4073 1     
     4043      4057      4065 1     
     4044      4074      4075 1     
     4045      4074      4076 1     
     4046      4074      4077 1     
     4047      4075      4078 1     
     4048      4075      4079 1     
     4049      4079      4080 1     
     4050      4079      4081 1     
     4051      4079      4082 1     
     4052      4066      4074 1     
     4053      4083      4084 1     
     4054      4083      4085 1     
     4055      4083      4086 1     
     4056      4084      4087 1     
     4057      4084      4088 1     
     4058      4088      4089 1     
     4059      4088      4090 1     
     4060      4088      4091 1     
     4061      4075      4083 1     
     4062      4092      4093 1     
     4063      4092      4094 1     
     4064      4092      4095 1     
     4065      4093      4096 1     
     4066      4093      4097 1     
     4067      4097      4098 1     
     4068      4097      4099 1     
     4069      4097      4100 1     
     4070      4084      4092 1     
     4071      4101      4102 1     
     4072      4101      4103 1     
     4073      4101      4104 1     
     4074      4102      4105 1     
     4075      4102      4106 1     
     4076      4102      4107 1     
     4077      4107      4108 1     
     4078      4107      4109 1     
     4079      4107      4110 1     
     4080      4093      4101 1     
@<TRIPOS>SUBSTRUCTURE
 1     pp    1      
 2     pp    11     
 3     pp    20     
 4     pp    29     
 5     pp    38     
 6     pp    47     
 7     pp    56     
 8     pp    65     
 9     pp    74     
 10    pp    83     
 11    pp    92     
 12    pp    101    
 13    pp    110    
 14    pp    119    
 15    pp    128    
 16    pp    138    
 17    pp    148    
 18    pp    157    
 19    pp    166    
 20    pp    175    
 21    pp    184    
 22    pp    193    
 23    pp    202    
 24    pp    211    
 25    pp    220    
 26    pp    229    
 27    pp    238    
 28    pp    247    
 29    pp    256    
 30    pp    265    
 31    pp    275    
 32    pp    285    
 33    pp    294    
 34    pp    303    
 35    pp    312    
 36    pp    321    
 37    pp    330    
 38    pp    339    
 39    pp    348    
 40    pp    357    
 41    pp    366    
 42    pp    375    
 43    pp    384    
 44    pp    393    
 45    pp    402    
 46    pp    412    
 47    pp    422    
 48    pp    431    
 49    pp    440    
 50    pp    449    
 51    pp    458    
 52    pp    467    
 53    pp    476    
 54    pp    485    
 55    pp    494    
 56    pp    503    
 57    pp    512    
 58    pp    521    
 59    pp    530    
 60    pp    539    
 61    pp    549    
 62    pp    559    
 63    pp    568    
 64    pp    577    
 65    pp    586    
 66    pp    595    
 67    pp    604    
 68    pp    613    
 69    pp    622    
 70    pp    631    
 71    pp    640    
 72    pp    649    
 73    pp    658    
 74    pp    667    
 75    pp    676    
 76    pp    686    
 77    pp    696    
 78    pp    705    
 79    pp    714    
 80    pp    723    
 81    pp    732    
 82    pp    741    
 83    pp    750    
 84    pp    759    
 85    pp    768    
 86    pp    777    
 87    pp    786    
 88    pp    795    
 89    pp    804    
 90    pp    813    
 91    pp    823    
 92    pp    833    
 93    pp    842    
 94    pp    851    
 95    pp    860    
 96    pp    869    
 97    pp    878    
 98    pp    887    
 99    pp    896    
 100   pp    905    
 101   pp    914    
 102   pp    923    
 103   pp    932    
 104   pp    941    
 105   pp    950    
 106   pp    960    
 107   pp    970    
 108   pp    979    
 109   pp    988    
 110   pp    997    
 111   pp    1006   
 112   pp    1015   
 113   pp    1024   
 114   pp    1033   
 115   pp    1042   
 116   pp    1051   
 117   pp    1060   
 118   pp    1069   
 119   pp    1078   
 120   pp    1087   
 121   pp    1097   
 122   pp    1107   
 123   pp    1116   
 124   pp    1125   
 125   pp    1134   
 126   pp    1143   
 127   pp    1152   
 128   pp    1161   
 129   pp    1170   
 130   pp    1179   
 131   pp    1188   
 132   pp    1197   
 133   pp    1206   
 134   pp    1215   
 135   pp    1224   
 136   pp    1234   
 137   pp    1244   
 138   pp    1253   
 139   pp    1262   
 140   pp    1271   
 141   pp    1280   
 142   pp    1289   
 143   pp    1298   
 144   pp    1307   
 145   pp    1316   
 146   pp    1325   
 147   pp    1334   
 148   pp    1343   
 149   pp    1352   
 150   pp    1361   
 151   pp    1371   
 152   pp    1381   
 153   pp    1390   
 154   pp    1399   
 155   pp    1408   
 156   pp    1417   
 157   pp    1426   
 158   pp    1435   
 159   pp    1444   
 160   pp    1453   
 161   pp    1462   
 162   pp    1471   
 163   pp    1480   
 164   pp    1489   
 165   pp    1498   
 166   pp    1508   
 167   pp    1518   
 168   pp    1527   
 169   pp    1536   
 170   pp    1545   
 171   pp    1554   
 172   pp    1563   
 173   pp    1572   
 174   pp    1581   
 175   pp    1590   
 176   pp    1599   
 177   pp    1608   
 178   pp    1617   
 179   pp    1626   
 180   pp    1635   
 181   pp    1645   
 182   pp    1655   
 183   pp    1664   
 184   pp    1673   
 185   pp    1682   
 186   pp    1691   
 187   pp    1700   
 188   pp    1709   
 189   pp    1718   
 190   pp    1727   
 191   pp    1736   
 192   pp    1745   
 193   pp    1754   
 194   pp    1763   
 195   pp    1772   
 196   pp    1782   
 197   pp    1792   
 198   pp    1801   
 199   pp    1810   
 200   pp    1819   
 201   pp    1828   
 202   pp    1837   
 203   pp    1846   
 204   pp    1855   
 205   pp    1864   
 206   pp    1873   
 207   pp    1882   
 208   pp    1891   
 209   pp    1900   
 210   pp    1909   
 211   pp    1919   
 212   pp    1929   
 213   pp    1938   
 214   pp    1947   
 215   pp    1956   
 216   pp    1965   
 217   pp    1974   
 218   pp    1983   
 219   pp    1992   
 220   pp    2001   
 221   pp    2010   
 222   pp    2019   
 223   pp    2028   
 224   pp    2037   
 225   pp    2046   
 226   pp    2056   
 227   pp    2066   
 228   pp    2075   
 229   pp    2084   
 230   pp    2093   
 231   pp    2102   
 232   pp    2111   
 233   pp    2120   
 234   pp    2129   
 235   pp    2138   
 236   pp    2147   
 237   pp    2156   
 238   pp    2165   
 239   pp    2174   
 240   pp    2183   
 241   pp    2193   
 242   pp    2203   
 243   pp    2212   
 244   pp    2221   
 245   pp    2230   
 246   pp    2239   
 247   pp    2248   
 248   pp    2257   
 249   pp    2266   
 250   pp    2275   
 251   pp    2284   
 252   pp    2293   
 253   pp    2302   
 254   pp    2311   
 255   pp    2320   
 256   pp    2330   
 257   pp    2340   
 258   pp    2349   
 259   pp    2358   
 260   pp    2367   
 261   pp    2376   
 262   pp    2385   
 263   pp    2394   
 264   pp    2403   
 265   pp    2412   
 266   pp    2421   
 267   pp    2430   
 268   pp    2439   
 269   pp    2448   
 270   pp    2457   
 271   pp    2467   
 272   pp    2477   
 273   pp    2486   
 274   pp    2495   
 275   pp    2504   
 276   pp    2513   
 277   pp    2522   
 278   pp    2531   
 279   pp    2540   
 280   pp    2549   
 281   pp    2558   
 282   pp    2567   
 283   pp    2576   
 284   pp    2585   
 285   pp    2594   
 286   pp    2604   
 287   pp    2614   
 288   pp    2623   
 289   pp    2632   
 290   pp    2641   
 291   pp    2650   
 292   pp    2659   
 293   pp    2668   
 294   pp    2677   
 295   pp    2686   
 296   pp    2695   
 297   pp    2704   
 298   pp    2713   
 299   pp    2722   
 300   pp    2731   
 301   pp    2741   
 302   pp    2751   
 303   pp    2760   
 304   pp    2769   
 305   pp    2778   
 306   pp    2787   
 307   pp    2796   
 308   pp    2805   
 309   pp    2814   
 310   pp    2823   
 311   pp    2832   
 312   pp    2841   
 313   pp    2850   
 314   pp    2859   
 315   pp    2868   
 316   pp    2878   
 317   pp    2888   
 318   pp    2897   
 319   pp    2906   
 320   pp    2915   
 321   pp    2924   
 322   pp    2933   
 323   pp    2942   
 324   pp    2951   
 325   pp    2960   
 326   pp    2969   
 327   pp    2978   
 328   pp    2987   
 329   pp    2996   
 330   pp    3005   
 331   pp    3015   
 332   pp    3025   
 333   pp    3034   
 334   pp    3043   
 335   pp    3052   
 336   pp    3061   
 337   pp    3070   
 338   pp    3079   
 339   pp    3088   
 340   pp    3097   
 341   pp    3106   
 342   pp    3115   
 343   pp    3124   
 344   pp    3133   
 345   pp    3142   
 346   pp    3152   
 347   pp    3162   
 348   pp    3171   
 349   pp    3180   
 350   pp    3189   
 351   pp    3198   
 352   pp    3207   
 353   pp    3216   
 354   pp    3225   
 355   pp    3234   
 356   pp    3243   
 357   pp    3252   
 358   pp    3261   
 359   pp    3270   
 360   pp    3279   
 361   pp    3289   
 362   pp    3299   
 363   pp    3308   
 364   pp    3317   
 365   pp    3326   
 366   pp    3335   
 367   pp    3344   
 368   pp    3353   
 369   pp    3362   
 370   pp    3371   
 371   pp    3380   
 372   pp    3389   
 373   pp    3398   
 374   pp    3407   
 375   pp    3416   
 376   pp    3426   
 377   pp    3436   
 378   pp    3445   
 379   pp    3454   
 380   pp    3463   
 381   pp    3472   
 382   pp    3481   
 383   pp    3490   
 384   pp    3499   
 385   pp    3508   
 386   pp    3517   
 387   pp    3526   
 388   pp    3535   
 389   pp    3544   
 390   pp    3553   
 391   pp    3563   
 392   pp    3573   
 393   pp    3582   
 394   pp    3591   
 395   pp    3600   
 396   pp    3609   
 397   pp    3618   
 398   pp    3627   
 399   pp    3636   
 400   pp    3645   
 401   pp    3654   
 402   pp    3663   
 403   pp    3672   
 404   pp    3681   
 405   pp    3690   
 406   pp    3700   
 407   pp    3710   
 408   pp    3719   
 409   pp    3728   
 410   pp    3737   
 411   pp    3746   
 412   pp    3755   
 413   pp    3764   
 414   pp    3773   
 415   pp    3782   
 416   pp    3791   
 417   pp    3800   
 418   pp    3809   
 419   pp    3818   
 420   pp    3827   
 421   pp    3837   
 422   pp    3847   
 423   pp    3856   
 424   pp    3865   
 425   pp    3874   
 426   pp    3883   
 427   pp    3892   
 428   pp    3901   
 429   pp    3910   
 430   pp    3919   
 431   pp    3928   
 432   pp    3937   
 433   pp    3946   
 434   pp    3955   
 435   pp    3964   
 436   pp    3974   
 437   pp    3984   
 438   pp    3993   
 439   pp    4002   
 440   pp    4011   
 441   pp    4020   
 442   pp    4029   
 443   pp    4038   
 444   pp    4047   
 445   pp    4056   
 446   pp    4065   
 447   pp    4074   
 448   pp    4083   
 449   pp    4092   
 450   pp    4101   
@<TRIPOS>COMMENT
 WM_BOX
        p         0.000000000000000        39.809600000000003         0.000000000000000         0.000000000000000
        p         0.000000000000000         0.000000000000000        39.809600000000003         0.000000000000000
        p         0.000000000000000         0.000000000000000         0.000000000000000        39.809600000000003
 WM_BACKBONE       960
        3
        1
        2
       11
       12
       20
       21
       29
       30
       38
       39
       47
       48
       56
       57
       65
       66
       74
       75
       83
       84
       92
       93
      101
      102
      110
      111
      119
      120
      128
      129
      133
      140
      138
      139
      148
      149
      157
      158
      166
      167
      175
      176
      184
      185
      193
      194
      202
      203
      211
      212
      220
      221
      229
      230
      238
      239
      247
      248
      256
      257
      265
      266
      270
      277
      275
      276
      285
      286
      294
      295
      303
      304
      312
      313
      321
      322
      330
      331
      339
      340
      348
      349
      357
      358
      366
      367
      375
      376
      384
      385
      393
      394
      402
      403
      407
      414
      412
      413
      422
      423
      431
      432
      440
      441
      449
      450
      458
      459
      467
      468
      476
      477
      485
      486
      494
      495
      503
      504
      512
      513
      521
      522
      530
      531
      539
      540
      544
      551
      549
      550
      559
      560
      568
      569
      577
      578
      586
      587
      595
      596
      604
      605
      613
      614
      622
      623
      631
      632
      640
      641
      649
      650
      658
      659
      667
      668
      676
      677
      681
      688
      686
      687
      696
      697
      705
      706
      714
      715
      723
      724
      732
      733
      741
      742
      750
      751
      759
      760
      768
      769
      777
      778
      786
      787
      795
      796
      804
      805
      813
      814
      818
      825
      823
      824
      833
      834
      842
      843
      851
      852
      860
      861
      869
      870
      878
      879
      887
      888
      896
      897
      905
      906
      914
      915
      923
      924
      932
      933
      941
      942
      950
      951
      955
      962
      960
      961
      970
      971
      979
      980
      988
      989
      997
      998
     1006
     1007
     1015
     1016
     1024
     1025
     1033
     1034
     1042
     1043
     1051
     1052
     1060
     1061
     1069
     1070
     1078
     1079
     1087
     1088
     1092
     1099
     1097
     1098
     1107
     1108
     1116
     1117
     1125
     1126
     1134
     1135
     1143
     1144
     1152
     1153
     1161
     1162
     1170
     1171
     1179
     1180
     1188
     1189
     1197
     1198
     1206
     1207
     1215
     1216
     1224
     1225
     1229
     1236
     1234
     1235
     1244
     1245
     1253
     1254
     1262
     1263
     1271
     1272
     1280
     1281
     1289
     1290
     1298
     1299
     1307
     1308
     1316
     1317
     1325
     1326
     1334
     1335
     1343
     1344
     1352
     1353
     1361
     1362
     1366
     1373
     1371
     1372
     1381
     1382
     1390
     1391
     1399
     1400
     1408
     1409
     1417
     1418
     1426
     1427
     1435
     1436
     1444
     1445
     1453
     1454
     1462
     1463
     1471
     1472
     1480
     1481
     1489
     1490
     1498
     1499
     1503
     1510
     1508
     1509
     1518
     1519
     1527
     1528
     1536
     1537
     1545
     1546
     1554
     1555
     1563
     1564
     1572
     1573
     1581
     1582
     1590
     1591
     1599
     1600
     1608
     1609
     1617
     1618
     1626
     1627
     1635
     1636
     1640
     1647
     1645
     1646
     1655
     1656
     1664
     1665
     1673
     1674
     1682
     1683
     1691
     1692
     1700
     1701
     1709
     1710
     1718
     1719
     1727
     1728
     1736
     1737
     1745
     1746
     1754
     1755
     1763
     1764
     1772
     1773
     1777
     1784
     1782
     1783
     1792
     1793
     1801
     1802
     1810
     1811
     1819
     1820
     1828
     1829
     1837
     1838
     1846
     1847
     1855
     1856
     1864
     1865
     1873
     1874
     1882
     1883
     1891
     1892
     1900
     1901
     1909
     1910
     1914
     1921
     1919
     1920
     1929
     1930
     1938
     1939
     1947
     1948
     1956
     1957
     1965
     1966
     1974
     1975
     1983
     1984
     1992
     1993
     2001
     2002
     2010
     2011
     2019
     2020
     2028
     2029
     2037
     2038
     2046
     2047
     2051
     2058
     2056
     2057
     2066
     2067
     2075
     2076
     2084
     2085
     2093
     2094
     2102
     2103
     2111
     2112
     2120
     2121
     2129
     2130
     2138
     2139
     2147
     2148
     2156
     2157
     2165
     2166
     2174
     2175
     2183
     2184
     2188
     2195
     2193
     2194
     2203
     2204
     2212
     2213
     2221
     2222
     2230
     2231
     2239
     2240
     2248
     2249
     2257
     2258
     2266
     2267
     2275
     2276
     2284
     2285
     2293
     2294
     2302
     2303
     2311
     2312
     2320
     2321
     2325
     2332
     2330
     2331
     2340
     2341
     2349
     2350
     2358
     2359
     2367
     2368
     2376
     2377
     2385
     2386
     2394
     2395
     2403
     2404
     2412
     2413
     2421
     2422
     2430
     2431
     2439
     2440
     2448
     2449
     2457
     2458
     2462
     2469
     2467
     2468
     2477
     2478
     2486
     2487
     2495
     2496
     2504
     2505
     2513
     2514
     2522
     2523
     2531
     2532
     2540
     2541
     2549
     2550
     2558
     2559
     2567
     2568
     2576
     2577
     2585
     2586
     2594
     2595
     2599
     2606
     2604
     2605
     2614
     2615
     2623
     2624
     2632
     2633
     2641
     2642
     2650
     2651
     2659
     2660
     2668
     2669
     2677
     2678
     2686
     2687
     2695
     2696
     2704
     2705
     2713
     2714
     2722
     2723
     2731
     2732
     2736
     2743
     2741
     2742
     2751
     2752
     2760
     2761
     2769
     2770
     2778
     2779
     2787
     2788
     2796
     2797
     2805
     2806
     2814
     2815
     2823
     2824
     2832
     2833
     2841
     2842
     2850
     2851
     2859
     2860
     2868
     2869
     2873
     2880
     2878
     2879
     2888
     2889
     2897
     2898
     2906
     2907
     2915
     2916
     2924
     2925
     2933
     2934
     2942
     2943
     2951
     2952
     2960
     2961
     2969
     2970
     2978
     2979
     2987
     2988
     2996
     2997
     3005
     3006
     3010
     3017
     3015
     3016
     3025
     3026
     3034
     3035
     3043
     3044
     3052
     3053
     3061
     3062
     3070
     3071
     3079
     3080
     3088
     3089
     3097
     3098
     3106
     3107
     3115
     3116
     3124
     3125
     3133
     3134
     3142
     3143
     3147
     3154
     3152
     3153
     3162
     3163
     3171
     3172
     3180
     3181
     3189
     3190
     3198
     3199
     3207
     3208
     3216
     3217
     3225
     3226
     3234
     3235
     3243
     3244
     3252
     3253
     3261
     3262
     3270
     3271
     3279
     3280
     3284
     3291
     3289
     3290
     3299
     3300
     3308
     3309
     3317
     3318
     3326
     3327
     3335
     3336
     3344
     3345
     3353
     3354
     3362
     3363
     3371
     3372
     3380
     3381
     3389
     3390
     3398
     3399
     3407
     3408
     3416
     3417
     3421
     3428
     3426
     3427
     3436
     3437
     3445
     3446
     3454
     3455
     3463
     3464
     3472
     3473
     3481
     3482
     3490
     3491
     3499
     3500
     3508
     3509
     3517
     3518
     3526
     3527
     3535
     3536
     3544
     3545
     3553
     3554
     3558
     3565
     3563
     3564
     3573
     3574
     3582
     3583
     3591
     3592
     3600
     3601
     3609
     3610
     3618
     3619
     3627
     3628
     3636
     3637
     3645
     3646
     3654
     3655
     3663
     3664
     3672
     3673
     3681
     3682
     3690
     3691
     3695
     3702
     3700
     3701
     3710
     3711
     3719
     3720
     3728
     3729
     3737
     3738
     3746
     3747
     3755
     3756
     3764
     3765
     3773
     3774
     3782
     3783
     3791
     3792
     3800
     3801
     3809
     3810
     3818
     3819
     3827
     3828
     3832
     3839
     3837
     3838
     3847
     3848
     3856
     3857
     3865
     3866
     3874
     3875
     3883
     3884
     3892
     3893
     3901
     3902
     3910
     3911
     3919
     3920
     3928
     3929
     3937
     3938
     3946
     3947
     3955
     3956
     3964
     3965
     3969
     3976
     3974
     3975
     3984
     3985
     3993
     3994
     4002
     4003
     4011
     4012
     4020
     4021
     4029
     4030
     4038
     4039
     4047
     4048
     4056
     4057
     4065
     4066
     4074
     4075
     4083
     4084
     4092
     4093
     4101
     4102
     4106
