@<TRIPOS>MOLECULE
Winmostar
         6         5         1         0         0
SMALL
USER_CHARGES


@<TRIPOS>ATOM
        1 Si1          -0.093672252         0.003679124        -0.001626233 Si        1 UNK      0.954051000
        2 O2            1.559202720        -0.014947423         0.012450860 O.3       1 UNK     -0.765013000
        3 H3           -0.503269152         1.419437887        -0.029813514 H         1 UNK     -0.177315000
        4 H4           -0.630628887        -0.699261847        -1.191859646 H         1 UNK     -0.223897000
        5 H5           -0.650849913        -0.657349427         1.203234556 H         1 UNK     -0.223458000
        6 H6            1.997473922        -0.853493628         0.029215039 H         1 UNK      0.435632000
@<TRIPOS>BOND
        1         1         2 1     
        2         1         3 1     
        3         1         4 1     
        4         1         5 1     
        5         2         6 1     
@<TRIPOS>SUBSTRUCTURE
 1 UNK 1
@<TRIPOS>COMMENT
